<?xml version="1.0" encoding="UTF-8"?>

<!-- generated on Thu Jul 25 16:22:41 2019 by Eclipse SUMO netedit Version 1.2.0
<configuration xmlns:xsi="http://www.w3.org/2001/XMLSchema-instance" xsi:noNamespaceSchemaLocation="http://sumo.dlr.de/xsd/netconvertConfiguration.xsd">

    <input>
        <sumo-net-file value="/Users/srizzo/ownCloud/RL/Code/Corniche/assets/Corniche_RL.net.xml"/>
    </input>

    <output>
        <output-file value="/Users/srizzo/ownCloud/RL/Code/Corniche/assets/Corniche_RL.net.xml"/>
        <output.street-names value="true"/>
    </output>

    <processing>
        <geometry.max-grade.fix value="false"/>
        <offset.disable-normalization value="true"/>
        <lefthand value="false"/>
    </processing>

    <junctions>
        <no-turnarounds value="true"/>
        <junctions.corner-detail value="5"/>
        <junctions.limit-turn-speed value="5.5"/>
        <rectangular-lane-cut value="false"/>
    </junctions>

    <pedestrian>
        <walkingareas value="false"/>
    </pedestrian>

</configuration>
-->

<net version="1.1" junctionCornerDetail="5" limitTurnSpeed="5.50" xmlns:xsi="http://www.w3.org/2001/XMLSchema-instance" xsi:noNamespaceSchemaLocation="http://sumo.dlr.de/xsd/net_file.xsd">

    <location netOffset="-474957.11,-2706484.68" convBoundary="76125.10,89963.89,81527.55,95370.76" origBoundary="50.750970,24.471963,51.653885,26.156379" projParameter="+proj=utm +zone=39 +ellps=WGS84 +datum=WGS84 +units=m +no_defs"/>

    <type id="10" priority="90" allow="rail"/>
    <type id="100" priority="0"/>
    <type id="11" priority="89"/>
    <type id="12" priority="88"/>
    <type id="13" priority="87"/>
    <type id="14" priority="86"/>
    <type id="15" priority="85"/>
    <type id="16" priority="84"/>
    <type id="17" priority="83"/>
    <type id="18" priority="82"/>
    <type id="19" priority="81"/>
    <type id="20" priority="80"/>
    <type id="21" priority="79"/>
    <type id="22" priority="78"/>
    <type id="23" priority="77"/>
    <type id="24" priority="76"/>
    <type id="25" priority="75"/>
    <type id="26" priority="74"/>
    <type id="27" priority="73"/>
    <type id="28" priority="72"/>
    <type id="29" priority="71"/>
    <type id="30" priority="70"/>
    <type id="31" priority="69"/>
    <type id="32" priority="68"/>
    <type id="33" priority="67"/>
    <type id="34" priority="66"/>
    <type id="35" priority="65"/>
    <type id="36" priority="64"/>
    <type id="37" priority="63"/>
    <type id="38" priority="62"/>
    <type id="39" priority="61"/>
    <type id="40" priority="60"/>
    <type id="41" priority="59"/>
    <type id="42" priority="58"/>
    <type id="43" priority="57"/>
    <type id="44" priority="56"/>
    <type id="45" priority="55"/>
    <type id="46" priority="54"/>
    <type id="47" priority="53"/>
    <type id="48" priority="52"/>
    <type id="49" priority="51"/>
    <type id="50" priority="50"/>
    <type id="51" priority="49"/>
    <type id="52" priority="48"/>
    <type id="53" priority="47"/>
    <type id="54" priority="46"/>
    <type id="55" priority="45"/>
    <type id="56" priority="44"/>
    <type id="57" priority="43"/>
    <type id="58" priority="42"/>
    <type id="59" priority="41"/>
    <type id="60" priority="40"/>
    <type id="61" priority="39"/>
    <type id="62" priority="38"/>
    <type id="63" priority="37"/>
    <type id="64" priority="36"/>
    <type id="65" priority="35"/>
    <type id="66" priority="34"/>
    <type id="67" priority="33"/>
    <type id="68" priority="32"/>
    <type id="69" priority="31"/>
    <type id="70" priority="30"/>
    <type id="71" priority="29"/>
    <type id="72" priority="28"/>
    <type id="73" priority="27"/>
    <type id="74" priority="26"/>
    <type id="75" priority="25"/>
    <type id="76" priority="24"/>
    <type id="77" priority="23"/>
    <type id="78" priority="22"/>
    <type id="79" priority="21"/>
    <type id="80" priority="20"/>
    <type id="81" priority="19"/>
    <type id="82" priority="18"/>
    <type id="83" priority="17"/>
    <type id="84" priority="16"/>
    <type id="85" priority="15"/>
    <type id="86" priority="14"/>
    <type id="87" priority="13"/>
    <type id="88" priority="12"/>
    <type id="89" priority="11"/>
    <type id="90" priority="10"/>
    <type id="91" priority="9"/>
    <type id="92" priority="8"/>
    <type id="93" priority="7"/>
    <type id="94" priority="6"/>
    <type id="95" priority="5"/>
    <type id="96" priority="4"/>
    <type id="97" priority="3"/>
    <type id="98" priority="2"/>
    <type id="99" priority="1"/>

    <edge id=":1089_0" function="internal">
        <lane id=":1089_0_0" index="0" speed="11.11" length="0.10" shape="77429.76,93591.97 77429.76,93591.97"/>
    </edge>
    <edge id=":1090_0" function="internal">
        <lane id=":1090_0_0" index="0" speed="13.89" length="8.50" shape="77418.23,93816.17 77418.26,93807.67"/>
    </edge>
    <edge id=":1090_1" function="internal">
        <lane id=":1090_1_0" index="0" speed="4.69" length="0.69" shape="77420.53,93810.58 77419.85,93810.45"/>
    </edge>
    <edge id=":1090_2" function="internal">
        <lane id=":1090_2_0" index="0" speed="4.69" length="3.50" shape="77419.85,93810.45 77419.53,93810.39 77418.82,93809.85 77418.39,93808.94 77418.26,93807.67"/>
    </edge>
    <edge id=":1109_0" function="internal">
        <lane id=":1109_0_0" index="0" speed="13.89" length="9.29" shape="76971.51,93739.16 76962.24,93739.19"/>
        <lane id=":1109_0_1" index="1" speed="13.89" length="9.29" shape="76971.51,93735.96 76962.21,93735.99"/>
    </edge>
    <edge id=":1109_2" function="internal">
        <lane id=":1109_2_0" index="0" speed="5.00" length="4.96" shape="76965.90,93733.59 76965.69,93734.63 76965.01,93735.38 76963.85,93735.83 76962.21,93735.99"/>
    </edge>
    <edge id=":1110_0" function="internal">
        <lane id=":1110_0_0" index="0" speed="13.89" length="10.03" shape="76897.29,93738.00 76894.23,93737.84 76892.14,93737.63 76890.07,93737.25 76887.09,93736.54"/>
        <lane id=":1110_0_1" index="1" speed="13.89" length="10.03" shape="76897.44,93734.80 76894.56,93734.65 76892.59,93734.46 76890.65,93734.10 76887.84,93733.43"/>
    </edge>
    <edge id=":1110_2" function="internal">
        <lane id=":1110_2_0" index="0" speed="5.82" length="7.61" shape="76897.44,93734.80 76894.62,93734.49 76892.68,93733.85 76891.60,93732.90 76891.39,93731.62"/>
    </edge>
    <edge id=":1110_3" function="internal">
        <lane id=":1110_3_0" index="0" speed="5.87" length="7.59" shape="76894.56,93732.12 76893.97,93733.26 76892.65,93733.86 76890.61,93733.92 76887.84,93733.43"/>
    </edge>
    <edge id=":1110_4" function="internal">
        <lane id=":1110_4_0" index="0" speed="3.65" length="4.67" shape="76894.56,93732.12 76893.58,93733.18 76892.73,93733.45 76892.00,93732.93 76891.39,93731.62"/>
    </edge>
    <edge id=":1130_0" function="internal">
        <lane id=":1130_0_0" index="0" speed="13.89" length="14.33" shape="77981.93,94431.94 77967.59,94431.96"/>
    </edge>
    <edge id=":1130_1" function="internal">
        <lane id=":1130_1_0" index="0" speed="8.04" length="14.18" shape="77981.93,94431.94 77978.10,94431.37 77975.36,94429.71 77973.70,94426.96 77973.12,94423.11"/>
    </edge>
    <edge id=":1130_2" function="internal">
        <lane id=":1130_2_0" index="0" speed="3.65" length="4.67" shape="77981.93,94431.94 77980.73,94431.13 77980.34,94430.33 77980.74,94429.53 77981.95,94428.74"/>
    </edge>
    <edge id=":1130_3" function="internal">
        <lane id=":1130_3_0" index="0" speed="6.55" length="9.06" shape="77976.32,94423.09 77976.69,94425.55 77977.75,94427.31 77979.50,94428.37 77981.95,94428.74"/>
    </edge>
    <edge id=":1130_4" function="internal">
        <lane id=":1130_4_0" index="0" speed="8.00" length="14.19" shape="77976.32,94423.09 77975.80,94426.94 77974.18,94429.71 77971.44,94431.38 77967.59,94431.96"/>
    </edge>
    <edge id=":1130_5" function="internal">
        <lane id=":1130_5_0" index="0" speed="3.65" length="4.67" shape="77976.32,94423.09 77975.53,94424.29 77974.73,94424.70 77973.93,94424.31 77973.12,94423.11"/>
    </edge>
    <edge id=":1130_6" function="internal">
        <lane id=":1130_6_0" index="0" speed="6.51" length="9.03" shape="77967.57,94428.76 77970.01,94428.39 77971.76,94427.33 77972.79,94425.57 77973.12,94423.11"/>
    </edge>
    <edge id=":1130_7" function="internal">
        <lane id=":1130_7_0" index="0" speed="13.89" length="14.38" shape="77967.57,94428.76 77981.95,94428.74"/>
    </edge>
    <edge id=":1130_8" function="internal">
        <lane id=":1130_8_0" index="0" speed="3.65" length="4.67" shape="77967.57,94428.76 77968.77,94429.55 77969.18,94430.35 77968.79,94431.15 77967.59,94431.96"/>
    </edge>
    <edge id=":1131_0" function="internal">
        <lane id=":1131_0_0" index="0" speed="6.53" length="9.04" shape="77790.90,94433.43 77788.46,94433.80 77786.72,94434.87 77785.67,94436.62 77785.31,94439.08"/>
    </edge>
    <edge id=":1131_1" function="internal">
        <lane id=":1131_1_0" index="0" speed="13.89" length="14.36" shape="77790.90,94433.43 77776.54,94433.45"/>
    </edge>
    <edge id=":1131_2" function="internal">
        <lane id=":1131_2_0" index="0" speed="3.65" length="2.34" shape="77790.90,94433.43 77789.69,94432.64 77789.29,94431.84"/>
    </edge>
    <edge id=":1131_9" function="internal">
        <lane id=":1131_9_0" index="0" speed="3.65" length="2.34" shape="77789.29,94431.84 77789.68,94431.04 77790.87,94430.23"/>
    </edge>
    <edge id=":1131_3" function="internal">
        <lane id=":1131_3_0" index="0" speed="13.89" length="14.32" shape="77776.56,94430.25 77790.87,94430.23"/>
    </edge>
    <edge id=":1131_4" function="internal">
        <lane id=":1131_4_0" index="0" speed="8.00" length="5.85" shape="77776.56,94430.25 77780.39,94430.82 77782.08,94431.84"/>
    </edge>
    <edge id=":1131_5" function="internal">
        <lane id=":1131_5_0" index="0" speed="3.65" length="2.34" shape="77776.56,94430.25 77777.75,94431.06 77778.15,94431.86"/>
    </edge>
    <edge id=":1131_10" function="internal">
        <lane id=":1131_10_0" index="0" speed="8.00" length="8.31" shape="77782.08,94431.84 77783.13,94432.48 77784.77,94435.23 77785.31,94439.08"/>
    </edge>
    <edge id=":1131_11" function="internal">
        <lane id=":1131_11_0" index="0" speed="3.65" length="2.34" shape="77778.15,94431.86 77777.74,94432.66 77776.54,94433.45"/>
    </edge>
    <edge id=":1131_6" function="internal">
        <lane id=":1131_6_0" index="0" speed="6.51" length="9.02" shape="77782.11,94439.07 77781.77,94436.62 77780.73,94434.87 77778.98,94433.82 77776.54,94433.45"/>
    </edge>
    <edge id=":1131_7" function="internal">
        <lane id=":1131_7_0" index="0" speed="8.02" length="14.16" shape="77782.11,94439.07 77782.67,94435.23 77784.31,94432.48 77787.05,94430.81 77790.87,94430.23"/>
    </edge>
    <edge id=":1131_8" function="internal">
        <lane id=":1131_8_0" index="0" speed="3.65" length="4.67" shape="77782.11,94439.07 77782.91,94437.87 77783.72,94437.47 77784.51,94437.87 77785.31,94439.08"/>
    </edge>
    <edge id=":1139_0" function="internal">
        <lane id=":1139_0_0" index="0" speed="6.30" length="9.04" shape="77101.08,93546.25 77098.56,93546.35 77096.77,93547.25 77095.69,93548.94 77095.33,93551.42"/>
    </edge>
    <edge id=":1139_1" function="internal">
        <lane id=":1139_1_0" index="0" speed="11.11" length="13.48" shape="77101.08,93546.25 77097.57,93545.74 77094.43,93544.87 77091.59,93543.41 77088.93,93541.16"/>
    </edge>
    <edge id=":1139_2" function="internal">
        <lane id=":1139_2_0" index="0" speed="3.65" length="4.67" shape="77101.08,93546.25 77099.97,93545.33 77099.65,93544.49 77100.13,93543.74 77101.41,93543.07"/>
    </edge>
    <edge id=":1139_3" function="internal">
        <lane id=":1139_3_0" index="0" speed="11.11" length="11.31" shape="77091.25,93538.95 77093.59,93541.05 77095.76,93542.17 77098.21,93542.71 77101.41,93543.07"/>
    </edge>
    <edge id=":1139_4" function="internal">
        <lane id=":1139_4_0" index="0" speed="11.11" length="13.48" shape="77091.25,93538.95 77093.34,93541.72 77094.58,93544.67 77095.18,93547.87 77095.33,93551.42"/>
    </edge>
    <edge id=":1139_5" function="internal">
        <lane id=":1139_5_0" index="0" speed="3.65" length="4.67" shape="77091.25,93538.95 77091.50,93540.37 77091.19,93541.21 77090.34,93541.48 77088.93,93541.16"/>
    </edge>
    <edge id=":1139_6" function="internal">
        <lane id=":1139_6_0" index="0" speed="11.11" length="11.16" shape="77092.13,93551.42 77092.12,93548.21 77091.83,93545.77 77090.89,93543.59 77088.93,93541.16"/>
    </edge>
    <edge id=":1139_7" function="internal">
        <lane id=":1139_7_0" index="0" speed="7.83" length="14.59" shape="77092.13,93551.42 77092.71,93547.40 77094.45,93544.67 77097.35,93543.23 77101.41,93543.07"/>
    </edge>
    <edge id=":1139_8" function="internal">
        <lane id=":1139_8_0" index="0" speed="3.65" length="4.67" shape="77092.13,93551.42 77092.93,93550.22 77093.73,93549.82 77094.53,93550.22 77095.33,93551.42"/>
    </edge>
    <edge id=":1142_0" function="internal">
        <lane id=":1142_0_0" index="0" speed="13.89" length="0.31" shape="77781.48,94613.46 77781.48,94613.15"/>
    </edge>
    <edge id=":1142_1" function="internal">
        <lane id=":1142_1_0" index="0" speed="3.65" length="2.34" shape="77781.48,94613.46 77782.28,94612.26 77783.08,94611.86"/>
    </edge>
    <edge id=":1142_4" function="internal">
        <lane id=":1142_4_0" index="0" speed="3.65" length="2.34" shape="77783.08,94611.86 77783.88,94612.26 77784.68,94613.46"/>
    </edge>
    <edge id=":1142_2" function="internal">
        <lane id=":1142_2_0" index="0" speed="13.89" length="0.29" shape="77784.68,94613.17 77784.68,94613.46"/>
    </edge>
    <edge id=":1142_3" function="internal">
        <lane id=":1142_3_0" index="0" speed="3.65" length="2.34" shape="77784.68,94613.17 77783.87,94614.36 77783.07,94614.76"/>
    </edge>
    <edge id=":1142_5" function="internal">
        <lane id=":1142_5_0" index="0" speed="3.65" length="2.34" shape="77783.07,94614.76 77782.27,94614.36 77781.48,94613.15"/>
    </edge>
    <edge id=":1144_0" function="internal">
        <lane id=":1144_0_0" index="0" speed="11.11" length="13.43" shape="77195.88,93498.84 77192.74,93496.15 77190.99,93493.54 77189.55,93491.02 77187.36,93488.61"/>
    </edge>
    <edge id=":1144_1" function="internal">
        <lane id=":1144_1_0" index="0" speed="7.72" length="5.67" shape="77197.62,93496.15 77196.74,93494.69 77197.07,93492.22 77197.66,93490.87"/>
    </edge>
    <edge id=":1144_9" function="internal">
        <lane id=":1144_9_0" index="0" speed="7.72" length="7.59" shape="77197.66,93490.87 77198.60,93488.73 77201.32,93484.23"/>
    </edge>
    <edge id=":1144_2" function="internal">
        <lane id=":1144_2_0" index="0" speed="7.04" length="11.47" shape="77189.36,93486.11 77191.62,93487.23 77193.93,93486.99 77196.27,93485.40 77198.66,93482.46"/>
    </edge>
    <edge id=":1144_3" function="internal">
        <lane id=":1144_3_0" index="0" speed="11.11" length="12.72" shape="77189.36,93486.11 77192.09,93487.68 77194.70,93488.33 77197.57,93489.04 77201.09,93490.78"/>
    </edge>
    <edge id=":1144_4" function="internal">
        <lane id=":1144_4_0" index="0" speed="3.65" length="2.58" shape="77189.36,93486.11 77189.79,93487.49 77189.61,93488.36 77189.39,93488.46"/>
    </edge>
    <edge id=":1144_10" function="internal">
        <lane id=":1144_10_0" index="0" speed="3.65" length="2.09" shape="77189.39,93488.46 77188.79,93488.74 77187.36,93488.61"/>
    </edge>
    <edge id=":1144_5" function="internal">
        <lane id=":1144_5_0" index="0" speed="7.74" length="12.37" shape="77187.12,93499.74 77188.99,93496.28 77189.65,93493.28 77189.11,93490.72 77187.36,93488.61"/>
    </edge>
    <edge id=":1144_6" function="internal">
        <lane id=":1144_6_0" index="0" speed="13.89" length="20.79" shape="77187.12,93499.74 77198.66,93482.46"/>
        <lane id=":1144_6_1" index="1" speed="13.89" length="20.79" shape="77189.78,93501.53 77201.32,93484.23"/>
    </edge>
    <edge id=":1144_8" function="internal">
        <lane id=":1144_8_0" index="0" speed="7.80" length="13.27" shape="77189.78,93501.53 77192.88,93497.29 77195.51,93494.54 77197.66,93493.26 77199.35,93493.46"/>
    </edge>
    <edge id=":1145_0" function="internal">
        <lane id=":1145_0_0" index="0" speed="3.65" length="4.67" shape="77137.29,93448.61 77136.85,93447.24 77137.04,93446.36 77137.85,93445.99 77139.29,93446.11"/>
    </edge>
    <edge id=":1159_0" function="internal">
        <lane id=":1159_0_0" index="0" speed="13.89" length="14.45" shape="77782.28,93951.15 77782.32,93936.70"/>
    </edge>
    <edge id=":1159_1" function="internal">
        <lane id=":1159_1_0" index="0" speed="8.00" length="14.21" shape="77782.28,93951.15 77782.82,93947.30 77784.47,93944.54 77787.22,93942.89 77791.08,93942.34"/>
    </edge>
    <edge id=":1159_2" function="internal">
        <lane id=":1159_2_0" index="0" speed="3.65" length="4.67" shape="77782.28,93951.15 77783.08,93949.95 77783.87,93949.55 77784.68,93949.95 77785.48,93951.15"/>
    </edge>
    <edge id=":1159_3" function="internal">
        <lane id=":1159_3_0" index="0" speed="6.50" length="9.04" shape="77791.08,93945.54 77788.62,93945.89 77786.87,93946.94 77785.82,93948.69 77785.48,93951.15"/>
    </edge>
    <edge id=":1159_4" function="internal">
        <lane id=":1159_4_0" index="0" speed="7.99" length="14.22" shape="77791.08,93945.54 77787.22,93944.99 77784.47,93943.33 77782.84,93940.57 77782.32,93936.70"/>
    </edge>
    <edge id=":1159_5" function="internal">
        <lane id=":1159_5_0" index="0" speed="3.65" length="4.67" shape="77791.08,93945.54 77789.88,93944.74 77789.48,93943.94 77789.88,93943.14 77791.08,93942.34"/>
    </edge>
    <edge id=":1159_6" function="internal">
        <lane id=":1159_6_0" index="0" speed="6.49" length="9.03" shape="77785.52,93936.73 77785.85,93939.18 77786.89,93940.94 77788.63,93941.99 77791.08,93942.34"/>
    </edge>
    <edge id=":1159_7" function="internal">
        <lane id=":1159_7_0" index="0" speed="13.89" length="14.42" shape="77785.52,93936.73 77785.48,93951.15"/>
    </edge>
    <edge id=":1159_8" function="internal">
        <lane id=":1159_8_0" index="0" speed="3.65" length="4.67" shape="77785.52,93936.73 77784.71,93937.92 77783.90,93938.32 77783.11,93937.91 77782.32,93936.70"/>
    </edge>
    <edge id=":1160_0" function="internal">
        <lane id=":1160_0_0" index="0" speed="11.11" length="0.42" shape="77937.17,94115.98 77937.04,94115.99 77936.96,94116.00 77936.87,94116.00 77936.75,94116.00"/>
    </edge>
    <edge id=":1160_1" function="internal">
        <lane id=":1160_1_0" index="0" speed="3.65" length="2.34" shape="77937.17,94115.98 77935.90,94115.29 77935.44,94114.53"/>
    </edge>
    <edge id=":1160_4" function="internal">
        <lane id=":1160_4_0" index="0" speed="3.65" length="2.34" shape="77935.44,94114.53 77935.77,94113.69 77936.89,94112.79"/>
    </edge>
    <edge id=":1160_2" function="internal">
        <lane id=":1160_2_0" index="0" speed="11.11" length="0.14" shape="77936.75,94112.80 77936.79,94112.80 77936.82,94112.80 77936.85,94112.80 77936.89,94112.79"/>
    </edge>
    <edge id=":1160_3" function="internal">
        <lane id=":1160_3_0" index="0" speed="3.65" length="2.34" shape="77936.75,94112.80 77937.95,94113.60 77938.35,94114.40"/>
    </edge>
    <edge id=":1160_5" function="internal">
        <lane id=":1160_5_0" index="0" speed="3.65" length="2.34" shape="77938.35,94114.40 77937.95,94115.20 77936.75,94116.00"/>
    </edge>
    <edge id=":1183_0" function="internal">
        <lane id=":1183_0_0" index="0" speed="13.89" length="14.42" shape="77782.54,94121.41 77782.50,94106.99"/>
    </edge>
    <edge id=":1183_1" function="internal">
        <lane id=":1183_1_0" index="0" speed="7.99" length="14.22" shape="77782.54,94121.41 77783.07,94117.55 77784.71,94114.79 77787.46,94113.14 77791.32,94112.59"/>
    </edge>
    <edge id=":1183_2" function="internal">
        <lane id=":1183_2_0" index="0" speed="3.65" length="4.67" shape="77782.54,94121.41 77783.33,94120.20 77784.13,94119.80 77784.93,94120.20 77785.74,94121.39"/>
    </edge>
    <edge id=":1183_3" function="internal">
        <lane id=":1183_3_0" index="0" speed="6.49" length="9.03" shape="77791.32,94115.79 77788.87,94116.14 77787.12,94117.19 77786.07,94118.94 77785.74,94121.39"/>
    </edge>
    <edge id=":1183_4" function="internal">
        <lane id=":1183_4_0" index="0" speed="8.01" length="14.21" shape="77791.32,94115.79 77787.46,94115.24 77784.70,94113.58 77783.05,94110.83 77782.50,94106.99"/>
    </edge>
    <edge id=":1183_5" function="internal">
        <lane id=":1183_5_0" index="0" speed="3.65" length="4.67" shape="77791.32,94115.79 77790.12,94114.99 77789.72,94114.19 77790.12,94113.39 77791.32,94112.59"/>
    </edge>
    <edge id=":1183_6" function="internal">
        <lane id=":1183_6_0" index="0" speed="6.52" length="9.05" shape="77785.70,94106.98 77786.05,94109.43 77787.11,94111.18 77788.86,94112.24 77791.32,94112.59"/>
    </edge>
    <edge id=":1183_7" function="internal">
        <lane id=":1183_7_0" index="0" speed="13.89" length="14.41" shape="77785.70,94106.98 77785.74,94121.39"/>
    </edge>
    <edge id=":1183_8" function="internal">
        <lane id=":1183_8_0" index="0" speed="3.65" length="4.67" shape="77785.70,94106.98 77784.90,94108.19 77784.10,94108.59 77783.30,94108.19 77782.50,94106.99"/>
    </edge>
    <edge id=":1185_0" function="internal">
        <lane id=":1185_0_0" index="0" speed="6.55" length="9.12" shape="77971.49,94225.68 77971.12,94223.19 77970.06,94221.41 77968.30,94220.34 77965.85,94219.99"/>
    </edge>
    <edge id=":1185_1" function="internal">
        <lane id=":1185_1_0" index="0" speed="7.95" length="14.29" shape="77971.49,94225.68 77972.02,94221.78 77973.67,94219.02 77976.44,94217.40 77980.34,94216.91"/>
    </edge>
    <edge id=":1185_2" function="internal">
        <lane id=":1185_2_0" index="0" speed="3.65" length="4.67" shape="77971.49,94225.68 77972.28,94224.47 77973.08,94224.07 77973.88,94224.46 77974.69,94225.65"/>
    </edge>
    <edge id=":1185_3" function="internal">
        <lane id=":1185_3_0" index="0" speed="6.45" length="9.03" shape="77980.29,94220.11 77977.82,94220.42 77976.07,94221.45 77975.02,94223.19 77974.69,94225.65"/>
    </edge>
    <edge id=":1185_4" function="internal">
        <lane id=":1185_4_0" index="0" speed="13.89" length="14.43" shape="77980.29,94220.11 77965.85,94219.99"/>
    </edge>
    <edge id=":1185_5" function="internal">
        <lane id=":1185_5_0" index="0" speed="3.65" length="4.67" shape="77980.29,94220.11 77979.10,94219.29 77978.71,94218.48 77979.13,94217.69 77980.34,94216.91"/>
    </edge>
    <edge id=":1185_6" function="internal">
        <lane id=":1185_6_0" index="0" speed="13.89" length="14.49" shape="77965.85,94216.79 77980.34,94216.91"/>
    </edge>
    <edge id=":1185_7" function="internal">
        <lane id=":1185_7_0" index="0" speed="8.04" length="14.25" shape="77965.85,94216.79 77969.69,94217.34 77972.44,94219.00 77974.11,94221.77 77974.69,94225.65"/>
    </edge>
    <edge id=":1185_8" function="internal">
        <lane id=":1185_8_0" index="0" speed="3.65" length="4.67" shape="77965.85,94216.79 77967.05,94217.59 77967.45,94218.39 77967.05,94219.19 77965.85,94219.99"/>
    </edge>
    <edge id=":1191_0" function="internal">
        <lane id=":1191_0_0" index="0" speed="6.51" length="9.02" shape="76969.91,93616.20 76967.46,93616.54 76965.71,93617.58 76964.65,93619.32 76964.28,93621.76"/>
    </edge>
    <edge id=":1191_1" function="internal">
        <lane id=":1191_1_0" index="0" speed="8.09" length="14.13" shape="76969.91,93616.20 76966.07,93615.65 76963.29,93614.02 76961.57,93611.32 76960.89,93607.55"/>
    </edge>
    <edge id=":1191_2" function="internal">
        <lane id=":1191_2_0" index="0" speed="3.65" length="4.67" shape="76969.91,93616.20 76968.71,93615.39 76968.31,93614.59 76968.72,93613.79 76969.92,93613.00"/>
    </edge>
    <edge id=":1191_3" function="internal">
        <lane id=":1191_3_0" index="0" speed="6.62" length="9.10" shape="76964.09,93607.45 76964.53,93609.87 76965.64,93611.60 76967.44,93612.64 76969.92,93613.00"/>
    </edge>
    <edge id=":1191_4" function="internal">
        <lane id=":1191_4_0" index="0" speed="11.11" length="14.32" shape="76964.09,93607.45 76964.28,93621.76"/>
    </edge>
    <edge id=":1191_5" function="internal">
        <lane id=":1191_5_0" index="0" speed="3.65" length="4.67" shape="76964.09,93607.45 76963.33,93608.67 76962.55,93609.10 76961.73,93608.73 76960.89,93607.55"/>
    </edge>
    <edge id=":1191_6" function="internal">
        <lane id=":1191_6_0" index="0" speed="11.11" length="14.19" shape="76961.08,93621.74 76960.89,93607.55"/>
    </edge>
    <edge id=":1191_7" function="internal">
        <lane id=":1191_7_0" index="0" speed="8.00" length="14.17" shape="76961.08,93621.74 76961.66,93617.90 76963.32,93615.17 76966.08,93613.53 76969.92,93613.00"/>
    </edge>
    <edge id=":1191_8" function="internal">
        <lane id=":1191_8_0" index="0" speed="3.65" length="4.67" shape="76961.08,93621.74 76961.89,93620.55 76962.69,93620.15 76963.49,93620.56 76964.28,93621.76"/>
    </edge>
    <edge id=":1192_0" function="internal">
        <lane id=":1192_0_0" index="0" speed="6.38" length="9.02" shape="76969.65,93688.84 76967.19,93689.22 76965.47,93690.29 76964.52,93692.07 76964.32,93694.55"/>
    </edge>
    <edge id=":1192_1" function="internal">
        <lane id=":1192_1_0" index="0" speed="11.11" length="14.90" shape="76969.65,93688.84 76954.75,93688.73"/>
    </edge>
    <edge id=":1192_2" function="internal">
        <lane id=":1192_2_0" index="0" speed="8.01" length="14.36" shape="76969.65,93688.84 76965.72,93688.32 76962.91,93686.68 76961.24,93683.92 76960.71,93680.04"/>
    </edge>
    <edge id=":1192_3" function="internal">
        <lane id=":1192_3_0" index="0" speed="3.65" length="4.67" shape="76969.65,93688.84 76968.45,93688.05 76968.04,93687.26 76968.44,93686.45 76969.63,93685.64"/>
    </edge>
    <edge id=":1192_4" function="internal">
        <lane id=":1192_4_0" index="0" speed="6.51" length="9.15" shape="76963.91,93680.06 76964.25,93682.52 76965.32,93684.27 76967.11,93685.31 76969.63,93685.64"/>
    </edge>
    <edge id=":1192_5" function="internal">
        <lane id=":1192_5_0" index="0" speed="11.11" length="14.49" shape="76963.91,93680.06 76964.32,93694.55"/>
    </edge>
    <edge id=":1192_6" function="internal">
        <lane id=":1192_6_0" index="0" speed="8.02" length="14.43" shape="76963.91,93680.06 76963.31,93683.93 76961.59,93686.67 76958.74,93688.27 76954.75,93688.73"/>
    </edge>
    <edge id=":1192_7" function="internal">
        <lane id=":1192_7_0" index="0" speed="3.65" length="4.67" shape="76963.91,93680.06 76963.10,93681.25 76962.30,93681.65 76961.50,93681.24 76960.71,93680.04"/>
    </edge>
    <edge id=":1192_8" function="internal">
        <lane id=":1192_8_0" index="0" speed="6.53" length="9.21" shape="76954.83,93685.53 76957.39,93685.24 76959.22,93684.22 76960.33,93682.49 76960.71,93680.04"/>
    </edge>
    <edge id=":1192_9" function="internal">
        <lane id=":1192_9_0" index="0" speed="11.11" length="14.80" shape="76954.83,93685.53 76969.63,93685.64"/>
    </edge>
    <edge id=":1192_10" function="internal">
        <lane id=":1192_10_0" index="0" speed="8.38" length="14.66" shape="76954.83,93685.53 76958.77,93686.17 76961.67,93687.89 76963.52,93690.68 76964.32,93694.55"/>
    </edge>
    <edge id=":1192_11" function="internal">
        <lane id=":1192_11_0" index="0" speed="3.65" length="4.67" shape="76954.83,93685.53 76956.01,93686.36 76956.39,93687.17 76955.97,93687.96 76954.75,93688.73"/>
    </edge>
    <edge id=":1192_12" function="internal">
        <lane id=":1192_12_0" index="0" speed="6.39" length="9.20" shape="76959.87,93694.76 76959.79,93692.17 76958.90,93690.30 76957.23,93689.16 76954.75,93688.73"/>
    </edge>
    <edge id=":1192_13" function="internal">
        <lane id=":1192_13_0" index="0" speed="11.11" length="14.75" shape="76959.87,93694.76 76960.22,93691.07 76960.47,93687.41 76960.64,93683.75 76960.71,93680.04"/>
    </edge>
    <edge id=":1192_14" function="internal">
        <lane id=":1192_14_0" index="0" speed="8.53" length="14.88" shape="76959.87,93694.76 76960.84,93690.80 76962.78,93687.96 76965.72,93686.24 76969.63,93685.64"/>
    </edge>
    <edge id=":1192_15" function="internal">
        <lane id=":1192_15_0" index="0" speed="4.19" length="6.50" shape="76959.87,93694.76 76960.90,93693.04 76961.99,93692.43 76963.13,93692.93 76964.32,93694.55"/>
    </edge>
    <edge id=":1201_0" function="internal">
        <lane id=":1201_0_0" index="0" speed="11.11" length="14.45" shape="77095.21,93607.91 77095.11,93622.36"/>
    </edge>
    <edge id=":1201_1" function="internal">
        <lane id=":1201_1_0" index="0" speed="8.00" length="14.22" shape="77095.21,93607.91 77094.65,93611.76 77092.99,93614.50 77090.23,93616.15 77086.37,93616.68"/>
    </edge>
    <edge id=":1201_2" function="internal">
        <lane id=":1201_2_0" index="0" speed="3.65" length="4.67" shape="77095.21,93607.91 77094.41,93609.10 77093.61,93609.50 77092.81,93609.10 77092.01,93607.90"/>
    </edge>
    <edge id=":1201_3" function="internal">
        <lane id=":1201_3_0" index="0" speed="6.51" length="9.05" shape="77086.38,93613.48 77088.84,93613.14 77090.60,93612.10 77091.66,93610.35 77092.01,93607.90"/>
    </edge>
    <edge id=":1201_4" function="internal">
        <lane id=":1201_4_0" index="0" speed="7.99" length="14.23" shape="77086.38,93613.48 77090.24,93614.05 77092.98,93615.72 77094.60,93618.49 77095.11,93622.36"/>
    </edge>
    <edge id=":1201_5" function="internal">