<routes xmlns:xsi="http://www.w3.org/2001/XMLSchema-instance" xsi:noNamespaceSchemaLocation="http://sumo.dlr.de/xsd/routes_file.xsd">
    <trip  id="1" depart="12" departLane="best"  departSpeed="max"  fromTaz="1019001" toTaz="1007005"/>
    <trip  id="2" depart="21" departLane="best"  departSpeed="max"  fromTaz="1018005" toTaz="1018009"/>
    <trip  id="3" depart="45" departLane="best"  departSpeed="max"  fromTaz="1060007" toTaz="1001009"/>
    <trip  id="4" depart="50" departLane="best"  departSpeed="max"  fromTaz="1007006" toTaz="1060002"/>
    <trip  id="5" depart="101" departLane="best"  departSpeed="max"  fromTaz="1007006" toTaz="1060001"/>
    <trip  id="6" depart="110" departLane="best"  departSpeed="max"  fromTaz="1001009" toTaz="1001010"/>
    <trip  id="7" depart="114" departLane="best"  departSpeed="max"  fromTaz="1001009" toTaz="1001009"/>
    <trip  id="8" depart="146" departLane="best"  departSpeed="max"  fromTaz="1060007" toTaz="1060001"/>
    <trip  id="9" depart="161" departLane="best"  departSpeed="max"  fromTaz="1061006" toTaz="1019002"/>
    <trip  id="10" depart="171" departLane="best"  departSpeed="max"  fromTaz="1061009" toTaz="1061007"/>
    <trip  id="11" depart="207" departLane="best"  departSpeed="max"  fromTaz="1063008" toTaz="1063009"/>
    <trip  id="12" depart="208" departLane="best"  departSpeed="max"  fromTaz="1060004" toTaz="1012034"/>
    <trip  id="13" depart="210" departLane="best"  departSpeed="max"  fromTaz="1019001" toTaz="1012003"/>
    <trip  id="14" depart="238" departLane="best"  departSpeed="max"  fromTaz="1061006" toTaz="1060001"/>
    <trip  id="15" depart="244" departLane="best"  departSpeed="max"  fromTaz="1001004" toTaz="1018009"/>
    <trip  id="16" depart="249" departLane="best"  departSpeed="max"  fromTaz="1001008" toTaz="1018009"/>
    <trip  id="17" depart="264" departLane="best"  departSpeed="max"  fromTaz="1001009" toTaz="1012003"/>
    <trip  id="18" depart="278" departLane="best"  departSpeed="max"  fromTaz="1001008" toTaz="1007005"/>
    <trip  id="19" depart="285" departLane="best"  departSpeed="max"  fromTaz="1060008" toTaz="1007006"/>
    <trip  id="20" depart="288" departLane="best"  departSpeed="max"  fromTaz="1060007" toTaz="1019001"/>
    <trip  id="21" depart="294" departLane="best"  departSpeed="max"  fromTaz="1012029" toTaz="1019002"/>
    <trip  id="22" depart="297" departLane="best"  departSpeed="max"  fromTaz="1001009" toTaz="1001009"/>
    <trip  id="23" depart="298" departLane="best"  departSpeed="max"  fromTaz="1060008" toTaz="1012003"/>
    <trip  id="24" depart="301" departLane="best"  departSpeed="max"  fromTaz="1001009" toTaz="1061013"/>
    <trip  id="25" depart="301" departLane="best"  departSpeed="max"  fromTaz="1007006" toTaz="1001009"/>
    <trip  id="26" depart="317" departLane="best"  departSpeed="max"  fromTaz="1001009" toTaz="1018008"/>
    <trip  id="27" depart="322" departLane="best"  departSpeed="max"  fromTaz="1060001" toTaz="1012003"/>
    <trip  id="28" depart="328" departLane="best"  departSpeed="max"  fromTaz="1063010" toTaz="1018008"/>
    <trip  id="29" depart="331" departLane="best"  departSpeed="max"  fromTaz="1007006" toTaz="1018009"/>
    <trip  id="30" depart="332" departLane="best"  departSpeed="max"  fromTaz="1061013" toTaz="1001008"/>
    <trip  id="31" depart="334" departLane="best"  departSpeed="max"  fromTaz="1001008" toTaz="1063006"/>
    <trip  id="32" depart="338" departLane="best"  departSpeed="max"  fromTaz="1060001" toTaz="1012003"/>
    <trip  id="33" depart="339" departLane="best"  departSpeed="max"  fromTaz="1018006" toTaz="1018009"/>
    <trip  id="34" depart="342" departLane="best"  departSpeed="max"  fromTaz="1001008" toTaz="1012003"/>
    <trip  id="35" depart="354" departLane="best"  departSpeed="max"  fromTaz="1060007" toTaz="1063001"/>
    <trip  id="36" depart="357" departLane="best"  departSpeed="max"  fromTaz="1019002" toTaz="1018008"/>
    <trip  id="37" depart="382" departLane="best"  departSpeed="max"  fromTaz="1061006" toTaz="1012003"/>
    <trip  id="38" depart="383" departLane="best"  departSpeed="max"  fromTaz="1060007" toTaz="1012034"/>
    <trip  id="39" depart="392" departLane="best"  departSpeed="max"  fromTaz="1061014" toTaz="1012003"/>
    <trip  id="40" depart="403" departLane="best"  departSpeed="max"  fromTaz="1002003" toTaz="1063001"/>
    <trip  id="41" depart="404" departLane="best"  departSpeed="max"  fromTaz="1061006" toTaz="1063006"/>
    <trip  id="42" depart="422" departLane="best"  departSpeed="max"  fromTaz="1061006" toTaz="1018003"/>
    <trip  id="43" depart="425" departLane="best"  departSpeed="max"  fromTaz="1061004" toTaz="1063001"/>
    <trip  id="44" depart="440" departLane="best"  departSpeed="max"  fromTaz="1001008" toTaz="1061014"/>
    <trip  id="45" depart="441" departLane="best"  departSpeed="max"  fromTaz="1019001" toTaz="1002003"/>
    <trip  id="46" depart="445" departLane="best"  departSpeed="max"  fromTaz="1018009" toTaz="1018009"/>
    <trip  id="47" depart="447" departLane="best"  departSpeed="max"  fromTaz="1001010" toTaz="1012003"/>
    <trip  id="48" depart="448" departLane="best"  departSpeed="max"  fromTaz="1060008" toTaz="1001009"/>
    <trip  id="49" depart="448" departLane="best"  departSpeed="max"  fromTaz="1018005" toTaz="1018009"/>
    <trip  id="50" depart="448" departLane="best"  departSpeed="max"  fromTaz="1061006" toTaz="1063001"/>
    <trip  id="51" depart="458" departLane="best"  departSpeed="max"  fromTaz="1001009" toTaz="1012003"/>
    <trip  id="52" depart="463" departLane="best"  departSpeed="max"  fromTaz="1002003" toTaz="1012003"/>
    <trip  id="53" depart="477" departLane="best"  departSpeed="max"  fromTaz="1063010" toTaz="1018009"/>
    <trip  id="54" depart="481" departLane="best"  departSpeed="max"  fromTaz="1061006" toTaz="1063006"/>
    <trip  id="55" depart="482" departLane="best"  departSpeed="max"  fromTaz="1061009" toTaz="1012003"/>
    <trip  id="56" depart="486" departLane="best"  departSpeed="max"  fromTaz="1012028" toTaz="1060007"/>
    <trip  id="57" depart="489" departLane="best"  departSpeed="max"  fromTaz="1060007" toTaz="1012034"/>
    <trip  id="58" depart="498" departLane="best"  departSpeed="max"  fromTaz="1018009" toTaz="1061006"/>
    <trip  id="59" depart="498" departLane="best"  departSpeed="max"  fromTaz="1018005" toTaz="1062002"/>
    <trip  id="60" depart="499" departLane="best"  departSpeed="max"  fromTaz="1061006" toTaz="1061014"/>
    <trip  id="61" depart="504" departLane="best"  departSpeed="max"  fromTaz="1018005" toTaz="1018009"/>
    <trip  id="62" depart="504" departLane="best"  departSpeed="max"  fromTaz="1061004" toTaz="1060002"/>
    <trip  id="63" depart="506" departLane="best"  departSpeed="max"  fromTaz="1018009" toTaz="1061006"/>
    <trip  id="64" depart="514" departLane="best"  departSpeed="max"  fromTaz="1018005" toTaz="1018008"/>
    <trip  id="65" depart="516" departLane="best"  departSpeed="max"  fromTaz="1002003" toTaz="1061007"/>
    <trip  id="66" depart="523" departLane="best"  departSpeed="max"  fromTaz="1060002" toTaz="1002002"/>
    <trip  id="67" depart="525" departLane="best"  departSpeed="max"  fromTaz="1019002" toTaz="1012003"/>
    <trip  id="68" depart="536" departLane="best"  departSpeed="max"  fromTaz="1060007" toTaz="1012003"/>
    <trip  id="69" depart="545" departLane="best"  departSpeed="max"  fromTaz="1001008" toTaz="1063001"/>
    <trip  id="70" depart="563" departLane="best"  departSpeed="max"  fromTaz="1061004" toTaz="1060001"/>
    <trip  id="71" depart="563" departLane="best"  departSpeed="max"  fromTaz="1018003" toTaz="1061008"/>
    <trip  id="72" depart="564" departLane="best"  departSpeed="max"  fromTaz="1061006" toTaz="1012003"/>
    <trip  id="73" depart="565" departLane="best"  departSpeed="max"  fromTaz="1002003" toTaz="1063001"/>
    <trip  id="74" depart="583" departLane="best"  departSpeed="max"  fromTaz="1060007" toTaz="1060001"/>
    <trip  id="75" depart="585" departLane="best"  departSpeed="max"  fromTaz="1001004" toTaz="1063001"/>
    <trip  id="76" depart="585" departLane="best"  departSpeed="max"  fromTaz="1002003" toTaz="1012003"/>
    <trip  id="77" depart="586" departLane="best"  departSpeed="max"  fromTaz="1001007" toTaz="1001008"/>
    <trip  id="78" depart="601" departLane="best"  departSpeed="max"  fromTaz="1061006" toTaz="1063001"/>
    <trip  id="79" depart="605" departLane="best"  departSpeed="max"  fromTaz="1001007" toTaz="1012003"/>
    <trip  id="80" depart="615" departLane="best"  departSpeed="max"  fromTaz="1060007" toTaz="1007006"/>
    <trip  id="81" depart="617" departLane="best"  departSpeed="max"  fromTaz="1018003" toTaz="1001008"/>
    <trip  id="82" depart="624" departLane="best"  departSpeed="max"  fromTaz="1001010" toTaz="1001009"/>
    <trip  id="83" depart="635" departLane="best"  departSpeed="max"  fromTaz="1019002" toTaz="1060001"/>
    <trip  id="84" depart="639" departLane="best"  departSpeed="max"  fromTaz="1007005" toTaz="1018008"/>
    <trip  id="85" depart="644" departLane="best"  departSpeed="max"  fromTaz="1061004" toTaz="1007005"/>
    <trip  id="86" depart="648" departLane="best"  departSpeed="max"  fromTaz="1061006" toTaz="1012003"/>
    <trip  id="87" depart="651" departLane="best"  departSpeed="max"  fromTaz="1001007" toTaz="1063001"/>
    <trip  id="88" depart="663" departLane="best"  departSpeed="max"  fromTaz="1001009" toTaz="1001009"/>
    <trip  id="89" depart="664" departLane="best"  departSpeed="max"  fromTaz="1061014" toTaz="1061004"/>
    <trip  id="90" depart="673" departLane="best"  departSpeed="max"  fromTaz="1001007" toTaz="1012034"/>
    <trip  id="91" depart="678" departLane="best"  departSpeed="max"  fromTaz="1001008" toTaz="1063001"/>
    <trip  id="92" depart="679" departLane="best"  departSpeed="max"  fromTaz="1061006" toTaz="1002003"/>
    <trip  id="93" depart="679" departLane="best"  departSpeed="max"  fromTaz="1019002" toTaz="1063001"/>
    <trip  id="94" depart="684" departLane="best"  departSpeed="max"  fromTaz="1018005" toTaz="1018009"/>
    <trip  id="95" depart="685" departLane="best"  departSpeed="max"  fromTaz="1060007" toTaz="1063010"/>
    <trip  id="96" depart="699" departLane="best"  departSpeed="max"  fromTaz="1061006" toTaz="1060001"/>
    <trip  id="97" depart="701" departLane="best"  departSpeed="max"  fromTaz="1002003" toTaz="1012034"/>
    <trip  id="98" depart="705" departLane="best"  departSpeed="max"  fromTaz="1063006" toTaz="1061006"/>
    <trip  id="99" depart="713" departLane="best"  departSpeed="max"  fromTaz="1019001" toTaz="1002002"/>
    <trip  id="100" depart="717" departLane="best"  departSpeed="max"  fromTaz="1007005" toTaz="1007005"/>
    <trip  id="101" depart="718" departLane="best"  departSpeed="max"  fromTaz="1001010" toTaz="1018009"/>
    <trip  id="102" depart="723" departLane="best"  departSpeed="max"  fromTaz="1018003" toTaz="1019001"/>
    <trip  id="103" depart="726" departLane="best"  departSpeed="max"  fromTaz="1061004" toTaz="1012003"/>
    <trip  id="104" depart="740" departLane="best"  departSpeed="max"  fromTaz="1061009" toTaz="1062002"/>
    <trip  id="105" depart="742" departLane="best"  departSpeed="max"  fromTaz="1063010" toTaz="1018009"/>
    <trip  id="106" depart="745" departLane="best"  departSpeed="max"  fromTaz="1001008" toTaz="1001008"/>
    <trip  id="107" depart="750" departLane="best"  departSpeed="max"  fromTaz="1018003" toTaz="1018009"/>
    <trip  id="108" depart="752" departLane="best"  departSpeed="max"  fromTaz="1061006" toTaz="1018009"/>
    <trip  id="109" depart="756" departLane="best"  departSpeed="max"  fromTaz="1002003" toTaz="1060001"/>
    <trip  id="110" depart="756" departLane="best"  departSpeed="max"  fromTaz="1019001" toTaz="1019001"/>
    <trip  id="111" depart="756" departLane="best"  departSpeed="max"  fromTaz="1060007" toTaz="1062002"/>
    <trip  id="112" depart="763" departLane="best"  departSpeed="max"  fromTaz="1061014" toTaz="1061002"/>
    <trip  id="113" depart="767" departLane="best"  departSpeed="max"  fromTaz="1012029" toTaz="1060001"/>
    <trip  id="114" depart="771" departLane="best"  departSpeed="max"  fromTaz="1061014" toTaz="1012034"/>
    <trip  id="115" depart="773" departLane="best"  departSpeed="max"  fromTaz="1001008" toTaz="1018009"/>
    <trip  id="116" depart="779" departLane="best"  departSpeed="max"  fromTaz="1019002" toTaz="1012003"/>
    <trip  id="117" depart="789" departLane="best"  departSpeed="max"  fromTaz="1001010" toTaz="1061013"/>
    <trip  id="118" depart="791" departLane="best"  departSpeed="max"  fromTaz="1061012" toTaz="1018009"/>
    <trip  id="119" depart="792" departLane="best"  departSpeed="max"  fromTaz="1060007" toTaz="1063001"/>
    <trip  id="120" depart="793" departLane="best"  departSpeed="max"  fromTaz="1063010" toTaz="1012003"/>
    <trip  id="121" depart="793" departLane="best"  departSpeed="max"  fromTaz="1061006" toTaz="1061006"/>
    <trip  id="122" depart="795" departLane="best"  departSpeed="max"  fromTaz="1061004" toTaz="1060001"/>
    <trip  id="123" depart="799" departLane="best"  departSpeed="max"  fromTaz="1019002" toTaz="1012034"/>
    <trip  id="124" depart="803" departLane="best"  departSpeed="max"  fromTaz="1001010" toTaz="1001009"/>
    <trip  id="125" depart="805" departLane="best"  departSpeed="max"  fromTaz="1019002" toTaz="1061007"/>
    <trip  id="126" depart="805" departLane="best"  departSpeed="max"  fromTaz="1001010" toTaz="1002002"/>
    <trip  id="127" depart="809" departLane="best"  departSpeed="max"  fromTaz="1019001" toTaz="1019001"/>
    <trip  id="128" depart="815" departLane="best"  departSpeed="max"  fromTaz="1001010" toTaz="1001009"/>
    <trip  id="129" depart="818" departLane="best"  departSpeed="max"  fromTaz="1001004" toTaz="1061004"/>
    <trip  id="130" depart="833" departLane="best"  departSpeed="max"  fromTaz="1063010" toTaz="1001008"/>
    <trip  id="131" depart="843" departLane="best"  departSpeed="max"  fromTaz="1060007" toTaz="1062002"/>
    <trip  id="132" depart="848" departLane="best"  departSpeed="max"  fromTaz="1061006" toTaz="1060001"/>
    <trip  id="133" depart="863" departLane="best"  departSpeed="max"  fromTaz="1018003" toTaz="1063001"/>
    <trip  id="134" depart="866" departLane="best"  departSpeed="max"  fromTaz="1061006" toTaz="1018008"/>
    <trip  id="135" depart="872" departLane="best"  departSpeed="max"  fromTaz="1063010" toTaz="1063001"/>
    <trip  id="136" depart="877" departLane="best"  departSpeed="max"  fromTaz="1061014" toTaz="1060001"/>
    <trip  id="137" depart="878" departLane="best"  departSpeed="max"  fromTaz="1063010" toTaz="1002003"/>
    <trip  id="138" depart="879" departLane="best"  departSpeed="max"  fromTaz="1001004" toTaz="1001004"/>
    <trip  id="139" depart="888" departLane="best"  departSpeed="max"  fromTaz="1062002" toTaz="1001007"/>
    <trip  id="140" depart="890" departLane="best"  departSpeed="max"  fromTaz="1063006" toTaz="1063001"/>
    <trip  id="141" depart="898" departLane="best"  departSpeed="max"  fromTaz="1063006" toTaz="1063006"/>
    <trip  id="142" depart="899" departLane="best"  departSpeed="max"  fromTaz="1061006" toTaz="1062002"/>
    <trip  id="143" depart="900" departLane="best"  departSpeed="max"  fromTaz="1001004" toTaz="1063001"/>
    <trip  id="144" depart="901" departLane="best"  departSpeed="max"  fromTaz="1018005" toTaz="1018005"/>
    <trip  id="145" depart="910" departLane="best"  departSpeed="max"  fromTaz="1060001" toTaz="1018009"/>
    <trip  id="146" depart="910" departLane="best"  departSpeed="max"  fromTaz="1061009" toTaz="1012003"/>
    <trip  id="147" depart="913" departLane="best"  departSpeed="max"  fromTaz="1001010" toTaz="1001009"/>
    <trip  id="148" depart="913" departLane="best"  departSpeed="max"  fromTaz="1060007" toTaz="1001008"/>
    <trip  id="149" depart="918" departLane="best"  departSpeed="max"  fromTaz="1061004" toTaz="1012003"/>
    <trip  id="150" depart="926" departLane="best"  departSpeed="max"  fromTaz="1001010" toTaz="1060007"/>
    <trip  id="151" depart="928" departLane="best"  departSpeed="max"  fromTaz="1061006" toTaz="1012003"/>
    <trip  id="152" depart="931" departLane="best"  departSpeed="max"  fromTaz="1061004" toTaz="1002003"/>
    <trip  id="153" depart="939" departLane="best"  departSpeed="max"  fromTaz="1019002" toTaz="1061012"/>
    <trip  id="154" depart="943" departLane="best"  departSpeed="max"  fromTaz="1001007" toTaz="1002003"/>
    <trip  id="155" depart="944" departLane="best"  departSpeed="max"  fromTaz="1019001" toTaz="1019001"/>
    <trip  id="156" depart="946" departLane="best"  departSpeed="max"  fromTaz="1012026" toTaz="1012034"/>
    <trip  id="157" depart="947" departLane="best"  departSpeed="max"  fromTaz="1060007" toTaz="1018009"/>
    <trip  id="158" depart="956" departLane="best"  departSpeed="max"  fromTaz="1018005" toTaz="1018009"/>
    <trip  id="159" depart="957" departLane="best"  departSpeed="max"  fromTaz="1001010" toTaz="1018009"/>
    <trip  id="160" depart="962" departLane="best"  departSpeed="max"  fromTaz="1061007" toTaz="1061007"/>
    <trip  id="161" depart="962" departLane="best"  departSpeed="max"  fromTaz="1001007" toTaz="1002002"/>
    <trip  id="162" depart="962" departLane="best"  departSpeed="max"  fromTaz="1018003" toTaz="1012021"/>
    <trip  id="163" depart="966" departLane="best"  departSpeed="max"  fromTaz="1061007" toTaz="1061007"/>
    <trip  id="164" depart="968" departLane="best"  departSpeed="max"  fromTaz="1018003" toTaz="1018009"/>
    <trip  id="165" depart="982" departLane="best"  departSpeed="max"  fromTaz="1018005" toTaz="1018009"/>
    <trip  id="166" depart="985" departLane="best"  departSpeed="max"  fromTaz="1007006" toTaz="1061007"/>
    <trip  id="167" depart="990" departLane="best"  departSpeed="max"  fromTaz="1061006" toTaz="1061009"/>
    <trip  id="168" depart="991" departLane="best"  departSpeed="max"  fromTaz="1012028" toTaz="1012003"/>
    <trip  id="169" depart="995" departLane="best"  departSpeed="max"  fromTaz="1061006" toTaz="1061014"/>
    <trip  id="170" depart="996" departLane="best"  departSpeed="max"  fromTaz="1061006" toTaz="1012003"/>
    <trip  id="171" depart="1012" departLane="best"  departSpeed="max"  fromTaz="1060007" toTaz="1060001"/>
    <trip  id="172" depart="1013" departLane="best"  departSpeed="max"  fromTaz="1019002" toTaz="1060001"/>
    <trip  id="173" depart="1018" departLane="best"  departSpeed="max"  fromTaz="1001007" toTaz="1063001"/>
    <trip  id="174" depart="1018" departLane="best"  departSpeed="max"  fromTaz="1001004" toTaz="1001009"/>
    <trip  id="175" depart="1019" departLane="best"  departSpeed="max"  fromTaz="1001009" toTaz="1061004"/>
    <trip  id="176" depart="1028" departLane="best"  departSpeed="max"  fromTaz="1001007" toTaz="1001008"/>
    <trip  id="177" depart="1036" departLane="best"  departSpeed="max"  fromTaz="1061006" toTaz="1018009"/>
    <trip  id="178" depart="1038" departLane="best"  departSpeed="max"  fromTaz="1061004" toTaz="1001008"/>
    <trip  id="179" depart="1040" departLane="best"  departSpeed="max"  fromTaz="1061012" toTaz="1012034"/>
    <trip  id="180" depart="1045" departLane="best"  departSpeed="max"  fromTaz="1060007" toTaz="1060001"/>
    <trip  id="181" depart="1062" departLane="best"  departSpeed="max"  fromTaz="1061007" toTaz="1001009"/>
    <trip  id="182" depart="1063" departLane="best"  departSpeed="max"  fromTaz="1018003" toTaz="1012034"/>
    <trip  id="183" depart="1068" departLane="best"  departSpeed="max"  fromTaz="1019002" toTaz="1061014"/>
    <trip  id="184" depart="1072" departLane="best"  departSpeed="max"  fromTaz="1019001" toTaz="1018009"/>
    <trip  id="185" depart="1089" departLane="best"  departSpeed="max"  fromTaz="1012028" toTaz="1012026"/>
    <trip  id="186" depart="1091" departLane="best"  departSpeed="max"  fromTaz="1063006" toTaz="1061006"/>
    <trip  id="187" depart="1095" departLane="best"  departSpeed="max"  fromTaz="1061006" toTaz="1012003"/>
    <trip  id="188" depart="1101" departLane="best"  departSpeed="max"  fromTaz="1061004" toTaz="1002002"/>
    <trip  id="189" depart="1107" departLane="best"  departSpeed="max"  fromTaz="1019001" toTaz="1002002"/>
    <trip  id="190" depart="1108" departLane="best"  departSpeed="max"  fromTaz="1061009" toTaz="1060001"/>
    <trip  id="191" depart="1114" departLane="best"  departSpeed="max"  fromTaz="1061006" toTaz="1061009"/>
    <trip  id="192" depart="1116" departLane="best"  departSpeed="max"  fromTaz="1061002" toTaz="1012034"/>
    <trip  id="193" depart="1117" departLane="best"  departSpeed="max"  fromTaz="1012010" toTaz="1061014"/>
    <trip  id="194" depart="1121" departLane="best"  departSpeed="max"  fromTaz="1001007" toTaz="1001008"/>
    <trip  id="195" depart="1122" departLane="best"  departSpeed="max"  fromTaz="1001008" toTaz="1012003"/>
    <trip  id="196" depart="1130" departLane="best"  departSpeed="max"  fromTaz="1012021" toTaz="1018008"/>
    <trip  id="197" depart="1138" departLane="best"  departSpeed="max"  fromTaz="1001004" toTaz="1007005"/>
    <trip  id="198" depart="1140" departLane="best"  departSpeed="max"  fromTaz="1061006" toTaz="1001009"/>
    <trip  id="199" depart="1146" departLane="best"  departSpeed="max"  fromTaz="1002003" toTaz="1012034"/>
    <trip  id="200" depart="1147" departLane="best"  departSpeed="max"  fromTaz="1018003" toTaz="1012034"/>
    <trip  id="201" depart="1147" departLane="best"  departSpeed="max"  fromTaz="1061006" toTaz="1012003"/>
    <trip  id="202" depart="1153" departLane="best"  departSpeed="max"  fromTaz="1061014" toTaz="1012034"/>
    <trip  id="203" depart="1179" departLane="best"  departSpeed="max"  fromTaz="1007006" toTaz="1002003"/>
    <trip  id="204" depart="1183" departLane="best"  departSpeed="max"  fromTaz="1001009" toTaz="1002002"/>
    <trip  id="205" depart="1186" departLane="best"  departSpeed="max"  fromTaz="1060001" toTaz="1012034"/>
    <trip  id="206" depart="1187" departLane="best"  departSpeed="max"  fromTaz="1018008" toTaz="1012026"/>
    <trip  id="207" depart="1187" departLane="best"  departSpeed="max"  fromTaz="1060005" toTaz="1012003"/>
    <trip  id="208" depart="1206" departLane="best"  departSpeed="max"  fromTaz="1019002" toTaz="1012003"/>
    <trip  id="209" depart="1212" departLane="best"  departSpeed="max"  fromTaz="1019002" toTaz="1061007"/>
    <trip  id="210" depart="1214" departLane="best"  departSpeed="max"  fromTaz="1061014" toTaz="1018009"/>
    <trip  id="211" depart="1220" departLane="best"  departSpeed="max"  fromTaz="1018003" toTaz="1018003"/>
    <trip  id="212" depart="1221" departLane="best"  departSpeed="max"  fromTaz="1001009" toTaz="1061004"/>
    <trip  id="213" depart="1225" departLane="best"  departSpeed="max"  fromTaz="1002003" toTaz="1018009"/>
    <trip  id="214" depart="1231" departLane="best"  departSpeed="max"  fromTaz="1019002" toTaz="1061009"/>
    <trip  id="215" depart="1235" departLane="best"  departSpeed="max"  fromTaz="1019001" toTaz="1012003"/>
    <trip  id="216" depart="1241" departLane="best"  departSpeed="max"  fromTaz="1060007" toTaz="1060001"/>
    <trip  id="217" depart="1246" departLane="best"  departSpeed="max"  fromTaz="1063010" toTaz="1018006"/>
    <trip  id="218" depart="1247" departLane="best"  departSpeed="max"  fromTaz="1061020" toTaz="1061014"/>
    <trip  id="219" depart="1252" departLane="best"  departSpeed="max"  fromTaz="1001010" toTaz="1060001"/>
    <trip  id="220" depart="1253" departLane="best"  departSpeed="max"  fromTaz="1001009" toTaz="1060007"/>
    <trip  id="221" depart="1255" departLane="best"  departSpeed="max"  fromTaz="1061014" toTaz="1012003"/>
    <trip  id="222" depart="1277" departLane="best"  departSpeed="max"  fromTaz="1060007" toTaz="1012003"/>
    <trip  id="223" depart="1281" departLane="best"  departSpeed="max"  fromTaz="1012003" toTaz="1012003"/>
    <trip  id="224" depart="1289" departLane="best"  departSpeed="max"  fromTaz="1019002" toTaz="1061014"/>
    <trip  id="225" depart="1299" departLane="best"  departSpeed="max"  fromTaz="1063006" toTaz="1018009"/>
    <trip  id="226" depart="1305" departLane="best"  departSpeed="max"  fromTaz="1062002" toTaz="1012003"/>
    <trip  id="227" depart="1305" departLane="best"  departSpeed="max"  fromTaz="1012026" toTaz="1012003"/>
    <trip  id="228" depart="1314" departLane="best"  departSpeed="max"  fromTaz="1063001" toTaz="1061006"/>
    <trip  id="229" depart="1314" departLane="best"  departSpeed="max"  fromTaz="1001009" toTaz="1002003"/>
    <trip  id="230" depart="1318" departLane="best"  departSpeed="max"  fromTaz="1001004" toTaz="1001007"/>
    <trip  id="231" depart="1322" departLane="best"  departSpeed="max"  fromTaz="1012021" toTaz="1060007"/>
    <trip  id="232" depart="1322" departLane="best"  departSpeed="max"  fromTaz="1019001" toTaz="1018009"/>
    <trip  id="233" depart="1327" departLane="best"  departSpeed="max"  fromTaz="1001004" toTaz="1001008"/>
    <trip  id="234" depart="1331" departLane="best"  departSpeed="max"  fromTaz="1061009" toTaz="1060001"/>
    <trip  id="235" depart="1332" departLane="best"  departSpeed="max"  fromTaz="1061004" toTaz="1061014"/>
    <trip  id="236" depart="1338" departLane="best"  departSpeed="max"  fromTaz="1001009" toTaz="1002002"/>
    <trip  id="237" depart="1341" departLane="best"  departSpeed="max"  fromTaz="1062002" toTaz="1061004"/>
    <trip  id="238" depart="1342" departLane="best"  departSpeed="max"  fromTaz="1062002" toTaz="1018009"/>
    <trip  id="239" depart="1347" departLane="best"  departSpeed="max"  fromTaz="1001004" toTaz="1060007"/>
    <trip  id="240" depart="1354" departLane="best"  departSpeed="max"  fromTaz="1019002" toTaz="1063006"/>
    <trip  id="241" depart="1358" departLane="best"  departSpeed="max"  fromTaz="1063010" toTaz="1061006"/>
    <trip  id="242" depart="1360" departLane="best"  departSpeed="max"  fromTaz="1063010" toTaz="1018009"/>
    <trip  id="243" depart="1367" departLane="best"  departSpeed="max"  fromTaz="1061006" toTaz="1012003"/>
    <trip  id="244" depart="1368" departLane="best"  departSpeed="max"  fromTaz="1019002" toTaz="1061007"/>
    <trip  id="245" depart="1375" departLane="best"  departSpeed="max"  fromTaz="1061006" toTaz="1012003"/>
    <trip  id="246" depart="1377" departLane="best"  departSpeed="max"  fromTaz="1061004" toTaz="1012034"/>
    <trip  id="247" depart="1380" departLane="best"  departSpeed="max"  fromTaz="1063010" toTaz="1001009"/>
    <trip  id="248" depart="1387" departLane="best"  departSpeed="max"  fromTaz="1019002" toTaz="1061007"/>
    <trip  id="249" depart="1390" departLane="best"  departSpeed="max"  fromTaz="1061006" toTaz="1001009"/>
    <trip  id="250" depart="1390" departLane="best"  departSpeed="max"  fromTaz="1063010" toTaz="1063009"/>
    <trip  id="251" depart="1402" departLane="best"  departSpeed="max"  fromTaz="1007005" toTaz="1001004"/>
    <trip  id="252" depart="1404" departLane="best"  departSpeed="max"  fromTaz="1061007" toTaz="1061007"/>
    <trip  id="253" depart="1407" departLane="best"  departSpeed="max"  fromTaz="1001009" toTaz="1012034"/>
    <trip  id="254" depart="1426" departLane="best"  departSpeed="max"  fromTaz="1019001" toTaz="1007006"/>
    <trip  id="255" depart="1426" departLane="best"  departSpeed="max"  fromTaz="1061005" toTaz="1063001"/>
    <trip  id="256" depart="1433" departLane="best"  departSpeed="max"  fromTaz="1061014" toTaz="1012003"/>
    <trip  id="257" depart="1435" departLane="best"  departSpeed="max"  fromTaz="1019002" toTaz="1019001"/>
    <trip  id="258" depart="1450" departLane="best"  departSpeed="max"  fromTaz="1001008" toTaz="1002002"/>
    <trip  id="259" depart="1459" departLane="best"  departSpeed="max"  fromTaz="1063010" toTaz="1001008"/>
    <trip  id="260" depart="1470" departLane="best"  departSpeed="max"  fromTaz="1019002" toTaz="1063001"/>
    <trip  id="261" depart="1475" departLane="best"  departSpeed="max"  fromTaz="1063010" toTaz="1061013"/>
    <trip  id="262" depart="1476" departLane="best"  departSpeed="max"  fromTaz="1001010" toTaz="1063001"/>
    <trip  id="263" depart="1479" departLane="best"  departSpeed="max"  fromTaz="1019002" toTaz="1002003"/>
    <trip  id="264" depart="1481" departLane="best"  departSpeed="max"  fromTaz="1063003" toTaz="1012003"/>
    <trip  id="265" depart="1484" departLane="best"  departSpeed="max"  fromTaz="1060007" toTaz="1061012"/>
    <trip  id="266" depart="1486" departLane="best"  departSpeed="max"  fromTaz="1060007" toTaz="1061006"/>
    <trip  id="267" depart="1487" departLane="best"  departSpeed="max"  fromTaz="1019002" toTaz="1062002"/>
    <trip  id="268" depart="1488" departLane="best"  departSpeed="max"  fromTaz="1061006" toTaz="1062002"/>
    <trip  id="269" depart="1495" departLane="best"  departSpeed="max"  fromTaz="1060007" toTaz="1001009"/>
    <trip  id="270" depart="1503" departLane="best"  departSpeed="max"  fromTaz="1018003" toTaz="1018003"/>
    <trip  id="271" depart="1512" departLane="best"  departSpeed="max"  fromTaz="1001008" toTaz="1060007"/>
    <trip  id="272" depart="1516" departLane="best"  departSpeed="max"  fromTaz="1060007" toTaz="1018009"/>
    <trip  id="273" depart="1520" departLane="best"  departSpeed="max"  fromTaz="1019002" toTaz="1061007"/>
    <trip  id="274" depart="1523" departLane="best"  departSpeed="max"  fromTaz="1019002" toTaz="1063001"/>
    <trip  id="275" depart="1529" departLane="best"  departSpeed="max"  fromTaz="1012003" toTaz="1012003"/>
    <trip  id="276" depart="1532" departLane="best"  departSpeed="max"  fromTaz="1060008" toTaz="1012034"/>
    <trip  id="277" depart="1539" departLane="best"  departSpeed="max"  fromTaz="1018005" toTaz="1061006"/>
    <trip  id="278" depart="1541" departLane="best"  departSpeed="max"  fromTaz="1019002" toTaz="1061019"/>
    <trip  id="279" depart="1547" departLane="best"  departSpeed="max"  fromTaz="1063010" toTaz="1012034"/>