<additional xmlns:xsi="http://www.w3.org/2001/XMLSchema-instance" xsi:noNamespaceSchemaLocation="http://sumo.dlr.de/xsd/additional_file.xsd">
    <laneAreaDetector file="e2output.xml" freq="60" friendlyPos="x" id="e2detp_3617_0" lane="3617_0" length="10" pos="141.25"/>
    <laneAreaDetector file="e2output.xml" freq="60" friendlyPos="x" id="e2detp_3617_1" lane="3617_1" length="10" pos="141.25"/>
    <laneAreaDetector file="e2output.xml" freq="60" friendlyPos="x" id="e2detd_3617_0" lane="3617_0" length="10" pos="0.1"/>
    <laneAreaDetector file="e2output.xml" freq="60" friendlyPos="x" id="e2detd_3617_1" lane="3617_1" length="10" pos="0.1"/>
    <laneAreaDetector file="e2output.xml" freq="60" friendlyPos="x" id="e2det_4376_0" lane="4376_0" length="10" pos="8.76"/>
    <laneAreaDetector file="e2output.xml" freq="60" friendlyPos="x" id="e2det_4376_1" lane="4376_1" length="10" pos="8.76"/>
    <laneAreaDetector file="e2output.xml" freq="60" friendlyPos="x" id="e2det_4208_0" lane="4208_0" length="10" pos="9.38"/>
    <laneAreaDetector file="e2output.xml" freq="60" friendlyPos="x" id="e2det_4208_1" lane="4208_1" length="10" pos="9.38"/>
    <laneAreaDetector file="e2output.xml" freq="60" friendlyPos="x" id="e2det_6718_0" lane="6718_0" length="10" pos="513.18"/>
    <laneAreaDetector file="e2output.xml" freq="60" friendlyPos="x" id="e2det_6718_1" lane="6718_1" length="10" pos="513.18"/>
    <laneAreaDetector file="e2output.xml" freq="60" friendlyPos="x" id="e2det_6718_2" lane="6718_2" length="10" pos="513.18"/>
    <laneAreaDetector file="e2output.xml" freq="60" friendlyPos="x" id="e2det_6718_3" lane="6718_3" length="10" pos="513.18"/>
    <laneAreaDetector file="e2output.xml" freq="60" friendlyPos="x" id="e2det_9201_0" lane="9201_0" length="10" pos="73.98"/>
    <laneAreaDetector file="e2output.xml" freq="60" friendlyPos="x" id="e2det_9201_1" lane="9201_1" length="10" pos="73.98"/>
    <laneAreaDetector file="e2output.xml" freq="60" friendlyPos="x" id="e2det_9201_2" lane="9201_2" length="10" pos="73.98"/>
    <laneAreaDetector file="e2output.xml" freq="60" friendlyPos="x" id="e2det_9201_3" lane="9201_3" length="10" pos="73.98"/>
    <laneAreaDetector file="e2output.xml" freq="60" friendlyPos="x" id="e2det_4222_0" lane="4222_0" length="10" pos="15.57"/>
    <laneAreaDetector file="e2output.xml" freq="60" friendlyPos="x" id="e2det_4222_1" lane="4222_1" length="10" pos="15.57"/>
    <laneAreaDetector file="e2output.xml" freq="60" friendlyPos="x" id="e2det_4222_2" lane="4222_2" length="10" pos="15.57"/>
    <laneAreaDetector file="e2output.xml" freq="60" friendlyPos="x" id="e2det_4227_0" lane="4227_0" length="10" pos="5.46"/>
    <laneAreaDetector file="e2output.xml" freq="60" friendlyPos="x" id="e2det_4227_1" lane="4227_1" length="10" pos="5.46"/>
    <laneAreaDetector file="e2output.xml" freq="60" friendlyPos="x" id="e2det_4227_2" lane="4227_2" length="10" pos="5.46"/>
    <laneAreaDetector file="e2output.xml" freq="60" friendlyPos="x" id="e2det_4227_3" lane="4227_3" length="10" pos="5.46"/>
    <laneAreaDetector file="e2output.xml" freq="60" friendlyPos="x" id="e2det_9207_0" lane="9207_0" length="10" pos="166.97"/>
    <laneAreaDetector file="e2output.xml" freq="60" friendlyPos="x" id="e2det_9207_1" lane="9207_1" length="10" pos="166.97"/>
    <laneAreaDetector file="e2output.xml" freq="60" friendlyPos="x" id="e2det_9207_2" lane="9207_2" length="10" pos="166.97"/>
    <laneAreaDetector file="e2output.xml" freq="60" friendlyPos="x" id="e2det_9209_0" lane="9209_0" length="10" pos="172.37"/>
    <laneAreaDetector file="e2output.xml" freq="60" friendlyPos="x" id="e2det_9209_1" lane="9209_1" length="10" pos="172.37"/>
    <laneAreaDetector file="e2output.xml" freq="60" friendlyPos="x" id="e2det_4232_0" lane="4232_0" length="10" pos="32.46"/>
    <laneAreaDetector file="e2output.xml" freq="60" friendlyPos="x" id="e2det_4232_1" lane="4232_1" length="10" pos="32.46"/>
    <laneAreaDetector file="e2output.xml" freq="60" friendlyPos="x" id="e2det_4232_2" lane="4232_2" length="10" pos="32.46"/>
    <laneAreaDetector file="e2output.xml" freq="60" friendlyPos="x" id="e2det_4232_3" lane="4232_3" length="10" pos="32.46"/>
    <laneAreaDetector file="e2output.xml" freq="60" friendlyPos="x" id="e2det_6278_0" lane="6278_0" length="10" pos="3.35"/>
    <laneAreaDetector file="e2output.xml" freq="60" friendlyPos="x" id="e2det_6278_1" lane="6278_1" length="10" pos="3.35"/>
    <laneAreaDetector file="e2output.xml" freq="60" friendlyPos="x" id="e2det_6278_2" lane="6278_2" length="10" pos="3.35"/>
    <laneAreaDetector file="e2output.xml" freq="60" friendlyPos="x" id="e2det_6278_3" lane="6278_3" length="10" pos="3.35"/>
    <laneAreaDetector file="e2output.xml" freq="60" friendlyPos="x" id="e2det_6285_0" lane="6285_0" length="2.31" pos="8.32667268469e-17"/>
    <laneAreaDetector file="e2output.xml" freq="60" friendlyPos="x" id="e2det_6285_1" lane="6285_1" length="2.31" pos="8.32667268469e-17"/>
    <laneAreaDetector file="e2output.xml" freq="60" friendlyPos="x" id="e2det_8954_0" lane="8954_0" length="10" pos="71.4"/>
    <laneAreaDetector file="e2output.xml" freq="60" friendlyPos="x" id="e2det_8954_1" lane="8954_1" length="10" pos="71.4"/>
    <laneAreaDetector file="e2output.xml" freq="60" friendlyPos="x" id="e2det_8960_0" lane="8960_0" length="10" pos="108.89"/>
    <laneAreaDetector file="e2output.xml" freq="60" friendlyPos="x" id="e2det_4296_0" lane="4296_0" length="7.23" pos="0"/>
    <laneAreaDetector file="e2output.xml" freq="60" friendlyPos="x" id="e2det_4296_1" lane="4296_1" length="7.23" pos="0"/>
    <laneAreaDetector file="e2output.xml" freq="60" friendlyPos="x" id="e2det_4296_2" lane="4296_2" length="7.23" pos="0"/>
    <laneAreaDetector file="e2output.xml" freq="60" friendlyPos="x" id="e2det_4298_0" lane="4298_0" length="10" pos="0.44"/>
    <laneAreaDetector file="e2output.xml" freq="60" friendlyPos="x" id="e2det_4298_1" lane="4298_1" length="10" pos="0.44"/>
    <laneAreaDetector file="e2output.xml" freq="60" friendlyPos="x" id="e2det_4298_2" lane="4298_2" length="10" pos="0.44"/>
    <laneAreaDetector file="e2output.xml" freq="60" friendlyPos="x" id="e2det_4298_3" lane="4298_3" length="10" pos="0.44"/>
    <laneAreaDetector file="e2output.xml" freq="60" friendlyPos="x" id="e2det_8970_0" lane="8970_0" length="10" pos="145.28"/>
    <laneAreaDetector file="e2output.xml" freq="60" friendlyPos="x" id="e2det_8970_1" lane="8970_1" length="10" pos="145.28"/>
    <laneAreaDetector file="e2output.xml" freq="60" friendlyPos="x" id="e2det_8970_2" lane="8970_2" length="10" pos="145.28"/>
    <laneAreaDetector file="e2output.xml" freq="60" friendlyPos="x" id="e2det_8970_3" lane="8970_3" length="10" pos="145.28"/>
    <laneAreaDetector file="e2output.xml" freq="60" friendlyPos="x" id="e2det_8971_0" lane="8971_0" length="10" pos="152.31"/>
    <laneAreaDetector file="e2output.xml" freq="60" friendlyPos="x" id="e2det_8971_1" lane="8971_1" length="10" pos="152.31"/>
    <laneAreaDetector file="e2output.xml" freq="60" friendlyPos="x" id="e2det_4316_0" lane="4316_0" length="4.2" pos="0"/>
    <laneAreaDetector file="e2output.xml" freq="60" friendlyPos="x" id="e2det_4316_1" lane="4316_1" length="4.2" pos="0"/>
    <laneAreaDetector file="e2output.xml" freq="60" friendlyPos="x" id="e2det_4316_2" lane="4316_2" length="4.2" pos="0"/>
    <laneAreaDetector file="e2output.xml" freq="60" friendlyPos="x" id="e2det_4320_0" lane="4320_0" length="2.45" pos="8.32667268469e-17"/>
    <laneAreaDetector file="e2output.xml" freq="60" friendlyPos="x" id="e2det_9043_0" lane="9043_0" length="10" pos="43.64"/>
    <laneAreaDetector file="e2output.xml" freq="60" friendlyPos="x" id="e2det_9043_1" lane="9043_1" length="10" pos="43.64"/>
    <laneAreaDetector file="e2output.xml" freq="60" friendlyPos="x" id="e2det_9043_2" lane="9043_2" length="10" pos="43.64"/>
    <laneAreaDetector file="e2output.xml" freq="60" friendlyPos="x" id="e2det_4328_0" lane="4328_0" length="3.06" pos="8.32667268469e-17"/>
    <laneAreaDetector file="e2output.xml" freq="60" friendlyPos="x" id="e2det_9008_0" lane="9008_0" length="10" pos="23.77"/>
    <laneAreaDetector file="e2output.xml" freq="60" friendlyPos="x" id="e2det_9008_1" lane="9008_1" length="10" pos="23.77"/>
    <laneAreaDetector file="e2output.xml" freq="60" friendlyPos="x" id="e2det_9017_0" lane="9017_0" length="10" pos="167.43"/>
    <laneAreaDetector file="e2output.xml" freq="60" friendlyPos="x" id="e2det_9017_1" lane="9017_1" length="10" pos="167.43"/>
    <laneAreaDetector file="e2output.xml" freq="60" friendlyPos="x" id="e2det_9017_2" lane="9017_2" length="10" pos="167.43"/>
    <laneAreaDetector file="e2output.xml" freq="60" friendlyPos="x" id="e2det_9022_0" lane="9022_0" length="10" pos="39.0"/>
    <laneAreaDetector file="e2output.xml" freq="60" friendlyPos="x" id="e2det_9022_1" lane="9022_1" length="10" pos="39.0"/>
    <laneAreaDetector file="e2output.xml" freq="60" friendlyPos="x" id="e2det_4332_0" lane="4332_0" length="0.1" pos="0"/>
    <laneAreaDetector file="e2output.xml" freq="60" friendlyPos="x" id="e2det_4332_1" lane="4332_1" length="0.1" pos="0"/>
    <laneAreaDetector file="e2output.xml" freq="60" friendlyPos="x" id="e2det_4336_0" lane="4336_0" length="2.12" pos="8.32667268469e-17"/>
    <laneAreaDetector file="e2output.xml" freq="60" friendlyPos="x" id="e2det_4336_1" lane="4336_1" length="2.12" pos="8.32667268469e-17"/>
    <laneAreaDetector file="e2output.xml" freq="60" friendlyPos="x" id="e2det_4356_0" lane="4356_0" length="0.0" pos="0"/>
    <laneAreaDetector file="e2output.xml" freq="60" friendlyPos="x" id="e2det_4356_1" lane="4356_1" length="0.0" pos="0"/>
    <laneAreaDetector file="e2output.xml" freq="60" friendlyPos="x" id="e2det_4359_0" lane="4359_0" length="4.24" pos="0"/>
    <laneAreaDetector file="e2output.xml" freq="60" friendlyPos="x" id="e2det_4359_1" lane="4359_1" length="4.24" pos="0"/>
    <laneAreaDetector file="e2output.xml" freq="60" friendlyPos="x" id="e2det_9029_0" lane="9029_0" length="10" pos="23.04"/>
    <laneAreaDetector file="e2output.xml" freq="60" friendlyPos="x" id="e2det_9030_0" lane="9030_0" length="10" pos="21.51"/>
    <laneAreaDetector file="e2output.xml" freq="60" friendlyPos="x" id="e2det_4339_0" lane="4339_0" length="5.99" pos="0"/>
    <laneAreaDetector file="e2output.xml" freq="60" friendlyPos="x" id="e2det_4339_1" lane="4339_1" length="5.99" pos="0"/>
    <laneAreaDetector file="e2output.xml" freq="60" friendlyPos="x" id="e2det_4339_2" lane="4339_2" length="5.99" pos="0"/>
    <laneAreaDetector file="e2output.xml" freq="60" friendlyPos="x" id="e2det_4343_0" lane="4343_0" length="10" pos="5.49"/>
    <laneAreaDetector file="e2output.xml" freq="60" friendlyPos="x" id="e2det_4343_1" lane="4343_1" length="10" pos="5.49"/>
    <laneAreaDetector file="e2output.xml" freq="60" friendlyPos="x" id="e2det_8987_0" lane="8987_0" length="10" pos="121.24"/>
    <laneAreaDetector file="e2output.xml" freq="60" friendlyPos="x" id="e2det_8987_1" lane="8987_1" length="10" pos="121.24"/>
    <laneAreaDetector file="e2output.xml" freq="60" friendlyPos="x" id="e2det_8987_2" lane="8987_2" length="10" pos="121.24"/>
    <laneAreaDetector file="e2output.xml" freq="60" friendlyPos="x" id="e2det_4341_0" lane="4341_0" length="2.27" pos="8.32667268469e-17"/>
    <laneAreaDetector file="e2output.xml" freq="60" friendlyPos="x" id="e2det_4341_1" lane="4341_1" length="2.27" pos="8.32667268469e-17"/>
    <laneAreaDetector file="e2output.xml" freq="60" friendlyPos="x" id="e2det_4341_2" lane="4341_2" length="2.27" pos="8.32667268469e-17"/>
    <laneAreaDetector file="e2output.xml" freq="60" friendlyPos="x" id="e2det_4355_0" lane="4355_0" length="6.26" pos="0"/>
    <laneAreaDetector file="e2output.xml" freq="60" friendlyPos="x" id="e2det_9006_0" lane="9006_0" length="10" pos="3.88"/>
    <laneAreaDetector file="e2output.xml" freq="60" friendlyPos="x" id="e2det_9013_0" lane="9013_0" length="4.65" pos="0"/>
    <laneAreaDetector file="e2output.xml" freq="60" friendlyPos="x" id="e2det_9013_1" lane="9013_1" length="4.65" pos="0"/>
    <laneAreaDetector file="e2output.xml" freq="60" friendlyPos="x" id="e2det_9013_2" lane="9013_2" length="4.65" pos="0"/>
    <laneAreaDetector file="e2output.xml" freq="60" friendlyPos="x" id="e2det_5298_0" lane="5298_0" length="10" pos="8.47"/>
    <laneAreaDetector file="e2output.xml" freq="60" friendlyPos="x" id="e2det_5298_1" lane="5298_1" length="10" pos="8.47"/>
    <laneAreaDetector file="e2output.xml" freq="60" friendlyPos="x" id="e2det_5298_2" lane="5298_2" length="10" pos="8.47"/>
    <laneAreaDetector file="e2output.xml" freq="60" friendlyPos="x" id="e2det_8776_0" lane="8776_0" length="10" pos="144.55"/>
    <laneAreaDetector file="e2output.xml" freq="60" friendlyPos="x" id="e2det_8776_1" lane="8776_1" length="10" pos="144.55"/>
    <laneAreaDetector file="e2output.xml" freq="60" friendlyPos="x" id="e2det_8776_2" lane="8776_2" length="10" pos="144.55"/>
    <laneAreaDetector file="e2output.xml" freq="60" friendlyPos="x" id="e2det_8776_3" lane="8776_3" length="10" pos="144.55"/>
    <laneAreaDetector file="e2output.xml" freq="60" friendlyPos="x" id="e2det_8783_0" lane="8783_0" length="10" pos="22.1"/>
    <laneAreaDetector file="e2output.xml" freq="60" friendlyPos="x" id="e2det_8783_1" lane="8783_1" length="10" pos="22.1"/>
    <laneAreaDetector file="e2output.xml" freq="60" friendlyPos="x" id="e2det_8783_2" lane="8783_2" length="10" pos="22.1"/>
    <laneAreaDetector file="e2output.xml" freq="60" friendlyPos="x" id="e2det_8791_0" lane="8791_0" length="10" pos="111.24"/>
    <laneAreaDetector file="e2output.xml" freq="60" friendlyPos="x" id="e2det_8791_1" lane="8791_1" length="10" pos="111.24"/>
    <laneAreaDetector file="e2output.xml" freq="60" friendlyPos="x" id="e2det_8791_2" lane="8791_2" length="10" pos="111.24"/>
    <laneAreaDetector file="e2output.xml" freq="60" friendlyPos="x" id="e2det_8791_3" lane="8791_3" length="10" pos="111.24"/>
    <laneAreaDetector file="e2output.xml" freq="60" friendlyPos="x" id="e2det_8806_0" lane="8806_0" length="10" pos="236.1"/>
    <laneAreaDetector file="e2output.xml" freq="60" friendlyPos="x" id="e2det_8806_1" lane="8806_1" length="10" pos="236.1"/>
    <laneAreaDetector file="e2output.xml" freq="60" friendlyPos="x" id="e2det_8806_2" lane="8806_2" length="10" pos="236.1"/>
    <laneAreaDetector file="e2output.xml" freq="60" friendlyPos="x" id="e2det_8816_0" lane="8816_0" length="10" pos="162.4"/>
    <laneAreaDetector file="e2output.xml" freq="60" friendlyPos="x" id="e2det_8816_1" lane="8816_1" length="10" pos="162.4"/>
    <laneAreaDetector file="e2output.xml" freq="60" friendlyPos="x" id="e2det_5308_0" lane="5308_0" length="10" pos="57.23"/>
    <laneAreaDetector file="e2output.xml" freq="60" friendlyPos="x" id="e2det_5308_1" lane="5308_1" length="10" pos="57.23"/>
    <laneAreaDetector file="e2output.xml" freq="60" friendlyPos="x" id="e2det_5308_2" lane="5308_2" length="10" pos="57.23"/>
    <laneAreaDetector file="e2output.xml" freq="60" friendlyPos="x" id="e2det_5308_3" lane="5308_3" length="10" pos="57.23"/>
    <laneAreaDetector file="e2output.xml" freq="60" friendlyPos="x" id="e2det_6108_0" lane="6108_0" length="10" pos="25.46"/>
    <laneAreaDetector file="e2output.xml" freq="60" friendlyPos="x" id="e2det_6108_1" lane="6108_1" length="10" pos="25.46"/>
    <laneAreaDetector file="e2output.xml" freq="60" friendlyPos="x" id="e2det_6108_2" lane="6108_2" length="10" pos="25.46"/>
    <laneAreaDetector file="e2output.xml" freq="60" friendlyPos="x" id="e2det_8946_0" lane="8946_0" length="10" pos="69.83"/>
    <laneAreaDetector file="e2output.xml" freq="60" friendlyPos="x" id="e2det_8946_1" lane="8946_1" length="10" pos="69.83"/>
    <laneAreaDetector file="e2output.xml" freq="60" friendlyPos="x" id="e2det_8946_2" lane="8946_2" length="10" pos="69.83"/>
    <laneAreaDetector file="e2output.xml" freq="60" friendlyPos="x" id="e2det_8946_3" lane="8946_3" length="10" pos="69.83"/>
    <laneAreaDetector file="e2output.xml" freq="60" friendlyPos="x" id="e2det_8947_0" lane="8947_0" length="10" pos="74.45"/>
    <laneAreaDetector file="e2output.xml" freq="60" friendlyPos="x" id="e2det_8947_1" lane="8947_1" length="10" pos="74.45"/>
    <laneAreaDetector file="e2output.xml" freq="60" friendlyPos="x" id="e2det_6087_0" lane="6087_0" length="10" pos="70.36"/>
    <laneAreaDetector file="e2output.xml" freq="60" friendlyPos="x" id="e2det_6087_1" lane="6087_1" length="10" pos="70.36"/>
    <laneAreaDetector file="e2output.xml" freq="60" friendlyPos="x" id="e2det_6087_2" lane="6087_2" length="10" pos="70.36"/>
    <laneAreaDetector file="e2output.xml" freq="60" friendlyPos="x" id="e2det_6094_0" lane="6094_0" length="10" pos="74.14"/>
    <laneAreaDetector file="e2output.xml" freq="60" friendlyPos="x" id="e2det_6094_1" lane="6094_1" length="10" pos="74.14"/>
    <laneAreaDetector file="e2output.xml" freq="60" friendlyPos="x" id="e2det_6094_2" lane="6094_2" length="10" pos="74.14"/>
    <laneAreaDetector file="e2output.xml" freq="60" friendlyPos="x" id="e2det_6097_0" lane="6097_0" length="10" pos="110.42"/>
    <laneAreaDetector file="e2output.xml" freq="60" friendlyPos="x" id="e2det_6097_1" lane="6097_1" length="10" pos="110.42"/>
    <laneAreaDetector file="e2output.xml" freq="60" friendlyPos="x" id="e2det_6098_0" lane="6098_0" length="10" pos="137.29"/>
    <laneAreaDetector file="e2output.xml" freq="60" friendlyPos="x" id="e2det_6098_1" lane="6098_1" length="10" pos="137.29"/>
    <laneAreaDetector file="e2output.xml" freq="60" friendlyPos="x" id="e2det_6102_0" lane="6102_0" length="10" pos="7.51"/>
    <laneAreaDetector file="e2output.xml" freq="60" friendlyPos="x" id="e2det_6102_1" lane="6102_1" length="10" pos="7.51"/>
    <laneAreaDetector file="e2output.xml" freq="60" friendlyPos="x" id="e2det_6102_2" lane="6102_2" length="10" pos="7.51"/>
    <laneAreaDetector file="e2output.xml" freq="60" friendlyPos="x" id="e2det_6498_0" lane="6498_0" length="10" pos="72.56"/>
    <laneAreaDetector file="e2output.xml" freq="60" friendlyPos="x" id="e2det_6498_1" lane="6498_1" length="10" pos="72.56"/>
    <laneAreaDetector file="e2output.xml" freq="60" friendlyPos="x" id="e2det_6498_2" lane="6498_2" length="10" pos="72.56"/>
    <laneAreaDetector file="e2output.xml" freq="60" friendlyPos="x" id="e2det_71548_0" lane="71548_0" length="10" pos="11.32"/>
    <laneAreaDetector file="e2output.xml" freq="60" friendlyPos="x" id="e2det_71548_1" lane="71548_1" length="10" pos="11.32"/>
    <laneAreaDetector file="e2output.xml" freq="60" friendlyPos="x" id="e2det_71548_2" lane="71548_2" length="10" pos="11.32"/>
    <laneAreaDetector file="e2output.xml" freq="60" friendlyPos="x" id="e2det_71554_0" lane="71554_0" length="8.48" pos="0"/>
    <laneAreaDetector file="e2output.xml" freq="60" friendlyPos="x" id="e2det_71554_1" lane="71554_1" length="8.48" pos="0"/>
    <laneAreaDetector file="e2output.xml" freq="60" friendlyPos="x" id="e2det_71981_0" lane="71981_0" length="10" pos="22.73"/>
    <laneAreaDetector file="e2output.xml" freq="60" friendlyPos="x" id="e2det_71981_1" lane="71981_1" length="10" pos="22.73"/>
    <laneAreaDetector file="e2output.xml" freq="60" friendlyPos="x" id="e2det_71981_2" lane="71981_2" length="10" pos="22.73"/>
    <laneAreaDetector file="e2output.xml" freq="60" friendlyPos="x" id="e2det_75910_0" lane="75910_0" length="10" pos="29.94"/>
    <laneAreaDetector file="e2output.xml" freq="60" friendlyPos="x" id="e2det_75910_1" lane="75910_1" length="10" pos="29.94"/>
    <laneAreaDetector file="e2output.xml" freq="60" friendlyPos="x" id="e2det_71713_0" lane="71713_0" length="10" pos="49.23"/>
    <laneAreaDetector file="e2output.xml" freq="60" friendlyPos="x" id="e2det_71713_1" lane="71713_1" length="10" pos="49.23"/>
    <laneAreaDetector file="e2output.xml" freq="60" friendlyPos="x" id="e2det_71713_2" lane="71713_2" length="10" pos="49.23"/>
    <laneAreaDetector file="e2output.xml" freq="60" friendlyPos="x" id="e2det_71821_0" lane="71821_0" length="10" pos="17.53"/>
    <laneAreaDetector file="e2output.xml" freq="60" friendlyPos="x" id="e2det_71821_1" lane="71821_1" length="10" pos="17.53"/>
    <laneAreaDetector file="e2output.xml" freq="60" friendlyPos="x" id="e2det_71821_2" lane="71821_2" length="10" pos="17.53"/>
    <laneAreaDetector file="e2output.xml" freq="60" friendlyPos="x" id="e2det_71947_0" lane="71947_0" length="10" pos="87.84"/>
    <laneAreaDetector file="e2output.xml" freq="60" friendlyPos="x" id="e2det_71947_1" lane="71947_1" length="10" pos="87.84"/>
    <laneAreaDetector file="e2output.xml" freq="60" friendlyPos="x" id="e2det_71947_2" lane="71947_2" length="10" pos="87.84"/>
    <laneAreaDetector file="e2output.xml" freq="60" friendlyPos="x" id="e2det_77131_0" lane="77131_0" length="10" pos="139.71"/>
    <laneAreaDetector file="e2output.xml" freq="60" friendlyPos="x" id="e2det_77131_1" lane="77131_1" length="10" pos="139.71"/>
    <laneAreaDetector file="e2output.xml" freq="60" friendlyPos="x" id="e2det_71765_0" lane="71765_0" length="10" pos="1.81"/>
    <laneAreaDetector file="e2output.xml" freq="60" friendlyPos="x" id="e2det_71765_1" lane="71765_1" length="10" pos="1.81"/>
    <laneAreaDetector file="e2output.xml" freq="60" friendlyPos="x" id="e2det_71765_2" lane="71765_2" length="10" pos="1.81"/>
    <laneAreaDetector file="e2output.xml" freq="60" friendlyPos="x" id="e2det_71922_0" lane="71922_0" length="10" pos="25.61"/>
    <laneAreaDetector file="e2output.xml" freq="60" friendlyPos="x" id="e2det_71922_1" lane="71922_1" length="10" pos="25.61"/>
    <laneAreaDetector file="e2output.xml" freq="60" friendlyPos="x" id="e2det_72041_0" lane="72041_0" length="3.37" pos="8.32667268469e-17"/>
    <laneAreaDetector file="e2output.xml" freq="60" friendlyPos="x" id="e2det_72041_1" lane="72041_1" length="3.37" pos="8.32667268469e-17"/>
    <laneAreaDetector file="e2output.xml" freq="60" friendlyPos="x" id="e2det_72041_2" lane="72041_2" length="3.37" pos="8.32667268469e-17"/>
    <laneAreaDetector file="e2output.xml" freq="60" friendlyPos="x" id="e2det_76961_0" lane="76961_0" length="10" pos="2.0"/>
    <laneAreaDetector file="e2output.xml" freq="60" friendlyPos="x" id="e2det_77117_0" lane="77117_0" length="10" pos="84.02"/>
    <laneAreaDetector file="e2output.xml" freq="60" friendlyPos="x" id="e2det_77122_0" lane="77122_0" length="10" pos="66.07"/>
    <laneAreaDetector file="e2output.xml" freq="60" friendlyPos="x" id="e2det_77128_0" lane="77128_0" length="10" pos="84.92"/>
    <laneAreaDetector file="e2output.xml" freq="60" friendlyPos="x" id="e2det_71820_0" lane="71820_0" length="10" pos="20.56"/>
    <laneAreaDetector file="e2output.xml" freq="60" friendlyPos="x" id="e2det_77004_0" lane="77004_0" length="10" pos="10.34"/>
    <laneAreaDetector file="e2output.xml" freq="60" friendlyPos="x" id="e2det_77004_1" lane="77004_1" length="10" pos="10.34"/>
    <laneAreaDetector file="e2output.xml" freq="60" friendlyPos="x" id="e2det_77004_2" lane="77004_2" length="10" pos="10.34"/>
    <laneAreaDetector file="e2output.xml" freq="60" friendlyPos="x" id="e2det_77305_0" lane="77305_0" length="10" pos="3.39"/>
    <laneAreaDetector file="e2output.xml" freq="60" friendlyPos="x" id="e2det_77305_1" lane="77305_1" length="10" pos="3.39"/>
    <laneAreaDetector file="e2output.xml" freq="60" friendlyPos="x" id="e2det_77305_2" lane="77305_2" length="10" pos="3.39"/>
    <laneAreaDetector file="e2output.xml" freq="60" friendlyPos="x" id="e2det_77308_0" lane="77308_0" length="10" pos="24.23"/>
    <laneAreaDetector file="e2output.xml" freq="60" friendlyPos="x" id="e2det_77308_1" lane="77308_1" length="10" pos="24.23"/>
    <laneAreaDetector file="e2output.xml" freq="60" friendlyPos="x" id="e2det_77308_2" lane="77308_2" length="10" pos="24.23"/>
    <laneAreaDetector file="e2output.xml" freq="60" friendlyPos="x" id="e2det_77314_0" lane="77314_0" length="10" pos="244.71"/>
    <laneAreaDetector file="e2output.xml" freq="60" friendlyPos="x" id="e2det_77318_0" lane="77318_0" length="10" pos="204.55"/>
    <laneAreaDetector file="e2output.xml" freq="60" friendlyPos="x" id="e2det_77318_1" lane="77318_1" length="10" pos="204.55"/>
    <laneAreaDetector file="e2output.xml" freq="60" friendlyPos="x" id="e2det_71979_0" lane="71979_0" length="10" pos="124.46"/>
    <laneAreaDetector file="e2output.xml" freq="60" friendlyPos="x" id="e2det_71979_1" lane="71979_1" length="10" pos="124.46"/>
    <laneAreaDetector file="e2output.xml" freq="60" friendlyPos="x" id="e2det_71979_2" lane="71979_2" length="10" pos="124.46"/>
    <laneAreaDetector file="e2output.xml" freq="60" friendlyPos="x" id="e2det_72232_0" lane="72232_0" length="10" pos="31.73"/>
    <laneAreaDetector file="e2output.xml" freq="60" friendlyPos="x" id="e2det_72232_1" lane="72232_1" length="10" pos="31.73"/>
    <laneAreaDetector file="e2output.xml" freq="60" friendlyPos="x" id="e2det_72232_2" lane="72232_2" length="10" pos="31.73"/>
    <laneAreaDetector file="e2output.xml" freq="60" friendlyPos="x" id="e2det_76937_0" lane="76937_0" length="10" pos="24.73"/>
    <laneAreaDetector file="e2output.xml" freq="60" friendlyPos="x" id="e2det_76937_1" lane="76937_1" length="10" pos="24.73"/>
    <laneAreaDetector file="e2output.xml" freq="60" friendlyPos="x" id="e2det_76937_2" lane="76937_2" length="10" pos="24.73"/>
    <laneAreaDetector file="e2output.xml" freq="60" friendlyPos="x" id="e2det_77098_0" lane="77098_0" length="10" pos="208.53"/>
    <laneAreaDetector file="e2output.xml" freq="60" friendlyPos="x" id="e2det_77098_1" lane="77098_1" length="10" pos="208.53"/>
    <laneAreaDetector file="e2output.xml" freq="60" friendlyPos="x" id="e2det_72137_0" lane="72137_0" length="10" pos="8.9"/>
    <laneAreaDetector file="e2output.xml" freq="60" friendlyPos="x" id="e2det_72137_1" lane="72137_1" length="10" pos="8.9"/>
    <laneAreaDetector file="e2output.xml" freq="60" friendlyPos="x" id="e2det_75687_0" lane="75687_0" length="10" pos="3.12"/>
    <laneAreaDetector file="e2output.xml" freq="60" friendlyPos="x" id="e2det_75687_1" lane="75687_1" length="10" pos="3.12"/>
    <laneAreaDetector file="e2output.xml" freq="60" friendlyPos="x" id="e2det_77064_0" lane="77064_0" length="10" pos="1.31"/>
    <laneAreaDetector file="e2output.xml" freq="60" friendlyPos="x" id="e2det_77064_1" lane="77064_1" length="10" pos="1.31"/>
    <laneAreaDetector file="e2output.xml" freq="60" friendlyPos="x" id="e2det_77071_0" lane="77071_0" length="10" pos="2.72"/>
    <laneAreaDetector file="e2output.xml" freq="60" friendlyPos="x" id="e2det_77071_1" lane="77071_1" length="10" pos="2.72"/>
    <laneAreaDetector file="e2output.xml" freq="60" friendlyPos="x" id="e2det_77075_0" lane="77075_0" length="10" pos="2.07"/>
    <laneAreaDetector file="e2output.xml" freq="60" friendlyPos="x" id="e2det_75536_0" lane="75536_0" length="10" pos="41.39"/>
    <laneAreaDetector file="e2output.xml" freq="60" friendlyPos="x" id="e2det_75536_1" lane="75536_1" length="10" pos="41.39"/>
    <laneAreaDetector file="e2output.xml" freq="60" friendlyPos="x" id="e2det_75537_0" lane="75537_0" length="4.13" pos="0"/>
    <laneAreaDetector file="e2output.xml" freq="60" friendlyPos="x" id="e2det_75537_1" lane="75537_1" length="4.13" pos="0"/>
    <laneAreaDetector file="e2output.xml" freq="60" friendlyPos="x" id="e2det_76493_0" lane="76493_0" length="10" pos="41.03"/>
    <laneAreaDetector file="e2output.xml" freq="60" friendlyPos="x" id="e2det_76493_1" lane="76493_1" length="10" pos="41.03"/>
    <laneAreaDetector file="e2output.xml" freq="60" friendlyPos="x" id="e2det_75730_0" lane="75730_0" length="10" pos="11.87"/>
    <laneAreaDetector file="e2output.xml" freq="60" friendlyPos="x" id="e2det_75730_1" lane="75730_1" length="10" pos="11.87"/>
    <laneAreaDetector file="e2output.xml" freq="60" friendlyPos="x" id="e2det_75730_2" lane="75730_2" length="10" pos="11.87"/>
    <laneAreaDetector file="e2output.xml" freq="60" friendlyPos="x" id="e2det_77964_0" lane="77964_0" length="10" pos="11.44"/>
    <laneAreaDetector file="e2output.xml" freq="60" friendlyPos="x" id="e2det_77964_1" lane="77964_1" length="10" pos="11.44"/>
    <laneAreaDetector file="e2output.xml" freq="60" friendlyPos="x" id="e2det_77964_2" lane="77964_2" length="10" pos="11.44"/>
    <laneAreaDetector file="e2output.xml" freq="60" friendlyPos="x" id="e2det_78028_0" lane="78028_0" length="10" pos="3.24"/>
    <laneAreaDetector file="e2output.xml" freq="60" friendlyPos="x" id="e2det_78028_1" lane="78028_1" length="10" pos="3.24"/>
    <laneAreaDetector file="e2output.xml" freq="60" friendlyPos="x" id="e2det_78028_2" lane="78028_2" length="10" pos="3.24"/>
    <laneAreaDetector file="e2output.xml" freq="60" friendlyPos="x" id="e2det_78218_0" lane="78218_0" length="10" pos="141.71"/>
    <laneAreaDetector file="e2output.xml" freq="60" friendlyPos="x" id="e2det_78221_0" lane="78221_0" length="10" pos="125.28"/>
    <laneAreaDetector file="e2output.xml" freq="60" friendlyPos="x" id="e2det_78221_1" lane="78221_1" length="10" pos="125.28"/>
    <laneAreaDetector file="e2output.xml" freq="60" friendlyPos="x" id="e2det_78226_0" lane="78226_0" length="9.99" pos="0"/>
    <laneAreaDetector file="e2output.xml" freq="60" friendlyPos="x" id="e2det_78226_1" lane="78226_1" length="9.99" pos="0"/>
    <laneAreaDetector file="e2output.xml" freq="60" friendlyPos="x" id="e2det_79330_0" lane="79330_0" length="10" pos="55.91"/>
    <laneAreaDetector file="e2output.xml" freq="60" friendlyPos="x" id="e2det_79330_1" lane="79330_1" length="10" pos="55.91"/>
    <laneAreaDetector file="e2output.xml" freq="60" friendlyPos="x" id="e2det_76212_0" lane="76212_0" length="10" pos="176.18"/>
    <laneAreaDetector file="e2output.xml" freq="60" friendlyPos="x" id="e2det_76212_1" lane="76212_1" length="10" pos="176.18"/>
    <laneAreaDetector file="e2output.xml" freq="60" friendlyPos="x" id="e2det_76212_2" lane="76212_2" length="10" pos="176.18"/>